<?xml version="1.0" encoding="UTF-8"?>

<!-- generated on 11/24/17 14:36:43 by SUMO netconvert Version 0.31.0
<?xml version="1.0" encoding="UTF-8"?>

<configuration xmlns:xsi="http://www.w3.org/2001/XMLSchema-instance" xsi:noNamespaceSchemaLocation="http://sumo.dlr.de/xsd/netconvertConfiguration.xsd">

    <input>
        <osm-files value=".\map.osm"/>
    </input>

    <output>
        <output-file value="map.net.xml"/>
    </output>

    <projection>
        <proj.utm value="true"/>
    </projection>

</configuration>
-->

<net version="0.27" xmlns:xsi="http://www.w3.org/2001/XMLSchema-instance" xsi:noNamespaceSchemaLocation="http://sumo.dlr.de/xsd/net_file.xsd">

    <location netOffset="-325426.58,-5404460.76" convBoundary="0.00,0.00,162.07,78.53" origBoundary="18.624136,48.768672,18.626320,48.769379" projParameter="+proj=utm +zone=34 +ellps=WGS84 +datum=WGS84 +units=m +no_defs"/>

    <type id="highway.bridleway" priority="1" numLanes="1" speed="2.78" allow="pedestrian" oneway="1" width="2.00"/>
    <type id="highway.bus_guideway" priority="1" numLanes="1" speed="8.33" allow="bus" oneway="1"/>
    <type id="highway.cycleway" priority="1" numLanes="1" speed="5.56" allow="bicycle" oneway="0" width="1.00"/>
    <type id="highway.footway" priority="1" numLanes="1" speed="2.78" allow="pedestrian" oneway="1" width="2.00"/>
    <type id="highway.ford" priority="1" numLanes="1" speed="2.78" allow="army" oneway="0"/>
    <type id="highway.living_street" priority="3" numLanes="1" speed="2.78" disallow="tram rail_urban rail rail_electric ship" oneway="0"/>
    <type id="highway.motorway" priority="13" numLanes="2" speed="44.44" allow="private emergency authority army vip passenger hov taxi bus coach delivery truck trailer motorcycle evehicle custom1 custom2" oneway="1"/>
    <type id="highway.motorway_link" priority="12" numLanes="1" speed="22.22" allow="private emergency authority army vip passenger hov taxi bus coach delivery truck trailer motorcycle evehicle custom1 custom2" oneway="1"/>
    <type id="highway.path" priority="1" numLanes="1" speed="2.78" allow="bicycle pedestrian" oneway="1" width="2.00"/>
    <type id="highway.pedestrian" priority="1" numLanes="1" speed="2.78" allow="pedestrian" oneway="1" width="2.00"/>
    <type id="highway.primary" priority="9" numLanes="2" speed="27.78" disallow="tram rail_urban rail rail_electric ship" oneway="0"/>
    <type id="highway.primary_link" priority="8" numLanes="1" speed="22.22" disallow="tram rail_urban rail rail_electric ship" oneway="0"/>
    <type id="highway.raceway" priority="14" numLanes="2" speed="83.33" allow="vip" oneway="0"/>
    <type id="highway.residential" priority="4" numLanes="1" speed="13.89" disallow="tram rail_urban rail rail_electric ship" oneway="0"/>
    <type id="highway.secondary" priority="7" numLanes="2" speed="27.78" disallow="tram rail_urban rail rail_electric ship" oneway="0"/>
    <type id="highway.secondary_link" priority="6" numLanes="1" speed="22.22" disallow="tram rail_urban rail rail_electric ship" oneway="0"/>
    <type id="highway.service" priority="2" numLanes="1" speed="5.56" allow="delivery bicycle pedestrian" oneway="0"/>
    <type id="highway.services" priority="1" numLanes="1" speed="8.33" disallow="tram rail_urban rail rail_electric ship" oneway="0"/>
    <type id="highway.stairs" priority="1" numLanes="1" speed="1.39" allow="pedestrian" oneway="1" width="2.00"/>
    <type id="highway.step" priority="1" numLanes="1" speed="1.39" allow="pedestrian" oneway="1" width="2.00"/>
    <type id="highway.steps" priority="1" numLanes="1" speed="1.39" allow="pedestrian" oneway="1" width="2.00"/>
    <type id="highway.tertiary" priority="6" numLanes="1" speed="22.22" disallow="tram rail_urban rail rail_electric ship" oneway="0"/>
    <type id="highway.tertiary_link" priority="5" numLanes="1" speed="22.22" disallow="tram rail_urban rail rail_electric ship" oneway="0"/>
    <type id="highway.track" priority="1" numLanes="1" speed="5.56" disallow="tram rail_urban rail rail_electric ship" oneway="0"/>
    <type id="highway.trunk" priority="11" numLanes="2" speed="27.78" disallow="tram rail_urban rail rail_electric bicycle pedestrian ship" oneway="0"/>
    <type id="highway.trunk_link" priority="10" numLanes="1" speed="22.22" disallow="tram rail_urban rail rail_electric bicycle pedestrian ship" oneway="0"/>
    <type id="highway.unclassified" priority="5" numLanes="1" speed="13.89" disallow="tram rail_urban rail rail_electric ship" oneway="0"/>
    <type id="highway.unsurfaced" priority="1" numLanes="1" speed="8.33" disallow="tram rail_urban rail rail_electric ship" oneway="0"/>
    <type id="railway.light_rail" priority="15" numLanes="1" speed="27.78" allow="rail_urban" oneway="1"/>
    <type id="railway.preserved" priority="15" numLanes="1" speed="27.78" allow="rail" oneway="1"/>
    <type id="railway.rail" priority="15" numLanes="1" speed="83.33" allow="rail rail_electric" oneway="1"/>
    <type id="railway.subway" priority="15" numLanes="1" speed="27.78" allow="rail_urban" oneway="1"/>
    <type id="railway.tram" priority="15" numLanes="1" speed="13.89" allow="tram" oneway="1"/>

    <edge id=":1284932583_0" function="internal">
        <lane id=":1284932583_0_0" index="0" disallow="tram rail_urban rail rail_electric ship" speed="13.89" length="0.62" shape="103.70,42.28 103.48,42.21 103.33,42.15 103.18,42.09 102.97,42.00"/>
        <lane id=":1284932583_0_1" index="1" disallow="tram rail_urban rail rail_electric ship" speed="13.89" length="0.62" shape="104.72,39.14 104.59,39.10 104.50,39.07 104.41,39.03 104.29,38.97"/>
    </edge>
    <edge id=":1284932583_2" function="internal">
        <lane id=":1284932583_2_0" index="0" disallow="tram rail_urban rail rail_electric ship" speed="13.89" length="2.41" shape="104.72,39.14 103.80,37.97 103.66,37.06"/>
    </edge>
    <edge id=":1284932583_5" function="internal">
        <lane id=":1284932583_5_0" index="0" speed="13.89" length="2.41" shape="103.66,37.06 104.31,36.40 105.74,36.00"/>
    </edge>
    <edge id=":1284932583_3" function="internal">
        <lane id=":1284932583_3_0" index="0" disallow="tram rail_urban rail rail_electric ship" speed="13.89" length="0.15" shape="105.60,35.95 105.64,35.97 105.67,35.98 105.70,35.99 105.74,36.00"/>
    </edge>
    <edge id=":1284932583_4" function="internal">
        <lane id=":1284932583_4_0" index="0" disallow="tram rail_urban rail rail_electric ship" speed="13.89" length="2.41" shape="105.60,35.95 106.41,37.20 106.46,38.12"/>
    </edge>
    <edge id=":1284932583_6" function="internal">
        <lane id=":1284932583_6_0" index="0" speed="13.89" length="2.41" shape="106.46,38.12 105.75,38.71 104.29,38.97"/>
    </edge>
    <edge id=":26407849_0" function="internal">
        <lane id=":26407849_0_0" index="0" disallow="tram rail_urban rail rail_electric ship" speed="13.89" length="12.53" shape="83.08,40.36 82.81,35.51 82.30,31.89 81.55,29.51 80.55,28.36"/>
    </edge>
    <edge id=":26407849_1" function="internal">
        <lane id=":26407849_1_0" index="0" disallow="tram rail_urban rail rail_electric ship" speed="13.89" length="12.87" shape="83.08,40.36 83.49,36.43 84.54,33.64 85.61,31.10 86.06,27.95"/>
    </edge>
    <edge id=":26407849_2" function="internal">
        <lane id=":26407849_2_0" index="0" disallow="tram rail_urban rail rail_electric ship" speed="13.89" length="11.27" shape="86.38,40.27 86.84,34.93 88.58,31.72 90.70,30.97"/>
    </edge>
    <edge id=":26407849_3" function="internal">
        <lane id=":26407849_3_0" index="0" disallow="tram rail_urban rail rail_electric ship" speed="13.89" length="2.72" shape="86.38,40.27 87.17,39.01 87.98,38.58 88.26,38.71"/>
    </edge>
    <edge id=":26407849_16" function="internal">
        <lane id=":26407849_16_0" index="0" speed="13.89" length="5.36" shape="90.70,30.97 91.59,30.65 95.88,31.72"/>
    </edge>
    <edge id=":26407849_17" function="internal">
        <lane id=":26407849_17_0" index="0" speed="13.89" length="2.10" shape="88.26,38.71 88.82,38.97 89.67,40.18"/>
    </edge>
    <edge id=":26407849_4" function="internal">
        <lane id=":26407849_4_0" index="0" disallow="tram rail_urban rail rail_electric ship" speed="13.89" length="5.65" shape="93.25,37.77 91.64,37.32 90.51,37.58 89.86,38.53 89.67,40.18"/>
    </edge>
    <edge id=":26407849_5" function="internal">
        <lane id=":26407849_5_0" index="0" disallow="tram rail_urban rail rail_electric ship" speed="13.89" length="15.89" shape="93.25,37.77 88.84,35.28 85.87,32.70 83.42,30.30 80.55,28.36"/>
    </edge>
    <edge id=":26407849_6" function="internal">
        <lane id=":26407849_6_0" index="0" disallow="tram rail_urban rail rail_electric ship" speed="13.89" length="11.28" shape="94.56,34.75 90.87,32.95 88.22,31.21 86.62,29.55 86.06,27.95"/>
    </edge>
    <edge id=":26407849_7" function="internal">
        <lane id=":26407849_7_0" index="0" disallow="tram rail_urban rail rail_electric ship" speed="13.89" length="2.70" shape="94.56,34.75 93.76,33.50 93.71,32.58 93.93,32.39"/>
    </edge>
    <edge id=":26407849_18" function="internal">
        <lane id=":26407849_18_0" index="0" speed="13.89" length="2.12" shape="93.93,32.39 94.42,31.98 95.88,31.72"/>
    </edge>
    <edge id=":26407849_8" function="internal">
        <lane id=":26407849_8_0" index="0" disallow="tram rail_urban rail rail_electric ship" speed="13.89" length="5.36" shape="92.66,27.82 92.88,29.01 93.49,30.06 94.49,30.96 95.88,31.72"/>
    </edge>
    <edge id=":26407849_9" function="internal">
        <lane id=":26407849_9_0" index="0" disallow="tram rail_urban rail rail_electric ship" speed="13.89" length="12.83" shape="92.66,27.82 92.23,31.73 91.17,34.51 90.10,37.04 89.67,40.18"/>
    </edge>
    <edge id=":26407849_10" function="internal">
        <lane id=":26407849_10_0" index="0" disallow="tram rail_urban rail rail_electric ship" speed="13.89" length="3.51" shape="89.36,27.88 88.85,29.70 87.34,30.32"/>
    </edge>
    <edge id=":26407849_11" function="internal">
        <lane id=":26407849_11_0" index="0" disallow="tram rail_urban rail rail_electric ship" speed="13.89" length="2.72" shape="89.36,27.88 88.56,29.14 87.74,29.57 87.47,29.43"/>
    </edge>
    <edge id=":26407849_19" function="internal">
        <lane id=":26407849_19_0" index="0" speed="13.89" length="7.14" shape="87.34,30.32 87.21,30.38 84.44,29.93 80.55,28.36"/>
    </edge>
    <edge id=":26407849_20" function="internal">
        <lane id=":26407849_20_0" index="0" speed="13.89" length="2.10" shape="87.47,29.43 86.91,29.17 86.06,27.95"/>
    </edge>
    <edge id=":26407849_12" function="internal">
        <lane id=":26407849_12_0" index="0" disallow="tram rail_urban rail rail_electric ship" speed="13.89" length="6.14" shape="83.41,22.41 86.06,27.95"/>
    </edge>
    <edge id=":26407849_13" function="internal">
        <lane id=":26407849_13_0" index="0" disallow="tram rail_urban rail rail_electric ship" speed="13.89" length="15.63" shape="83.41,22.41 87.67,25.01 90.56,27.58 92.98,29.90 95.88,31.72"/>
    </edge>
    <edge id=":26407849_14" function="internal">
        <lane id=":26407849_14_0" index="0" disallow="tram rail_urban rail rail_electric ship" speed="13.89" length="9.82" shape="81.98,25.38 85.24,27.64 87.60,30.86 88.23,32.62"/>
    </edge>
    <edge id=":26407849_15" function="internal">
        <lane id=":26407849_15_0" index="0" disallow="tram rail_urban rail rail_electric ship" speed="13.89" length="2.70" shape="81.98,25.38 82.74,26.66 82.76,27.58 82.53,27.76"/>
    </edge>
    <edge id=":26407849_21" function="internal">
        <lane id=":26407849_21_0" index="0" speed="13.89" length="7.74" shape="88.23,32.62 89.08,35.04 89.67,40.18"/>
    </edge>
    <edge id=":26407849_22" function="internal">
        <lane id=":26407849_22_0" index="0" speed="13.89" length="2.12" shape="82.53,27.76 82.03,28.15 80.55,28.36"/>
    </edge>
    <edge id=":282770927_0" function="internal">
        <lane id=":282770927_0_0" index="0" disallow="tram rail_urban rail rail_electric ship" speed="13.89" length="4.82" shape="-0.30,6.61 -1.37,5.57 -1.62,4.69 -1.07,3.95 0.30,3.37"/>
    </edge>
    <edge id=":289155572_0" function="internal">
        <lane id=":289155572_0_0" index="0" disallow="tram rail_urban rail rail_electric ship" speed="13.89" length="4.82" shape="84.77,0.08 85.54,-1.20 86.34,-1.65 87.19,-1.27 88.07,-0.08"/>
    </edge>
    <edge id=":289155573_0" function="internal">
        <lane id=":289155573_0_0" index="0" disallow="tram rail_urban rail rail_electric ship" speed="13.89" length="0.35" shape="85.85,23.22 85.83,22.86"/>
    </edge>
    <edge id=":289155573_1" function="internal">
        <lane id=":289155573_1_0" index="0" disallow="tram rail_urban rail rail_electric ship" speed="13.89" length="2.41" shape="85.85,23.22 86.58,21.92 87.37,21.45"/>
    </edge>
    <edge id=":289155573_5" function="internal">
        <lane id=":289155573_5_0" index="0" speed="13.89" length="2.41" shape="87.37,21.45 88.22,21.80 89.14,22.97"/>
    </edge>
    <edge id=":289155573_2" function="internal">
        <lane id=":289155573_2_0" index="0" disallow="tram rail_urban rail rail_electric ship" speed="13.89" length="0.22" shape="92.42,22.56 92.43,22.73"/>
        <lane id=":289155573_2_1" index="1" disallow="tram rail_urban rail rail_electric ship" speed="13.89" length="0.22" shape="89.12,22.71 89.14,22.97"/>
    </edge>
    <edge id=":289155573_4" function="internal">
        <lane id=":289155573_4_0" index="0" disallow="tram rail_urban rail rail_electric ship" speed="13.89" length="2.41" shape="89.12,22.71 88.36,23.99 87.55,24.44"/>
    </edge>
    <edge id=":289155573_6" function="internal">
        <lane id=":289155573_6_0" index="0" speed="13.89" length="2.41" shape="87.55,24.44 86.71,24.06 85.83,22.86"/>
    </edge>
    <edge id=":291327872_0" function="internal">
        <lane id=":291327872_0_0" index="0" disallow="tram rail_urban rail rail_electric ship" speed="13.89" length="4.82" shape="89.98,78.54 89.15,79.77 88.32,80.18 87.50,79.77 86.68,78.53"/>
    </edge>
    <edge id=":307447548_0" function="internal">
        <lane id=":307447548_0_0" index="0" disallow="tram rail_urban rail rail_electric ship" speed="13.89" length="4.82" shape="162.41,50.00 163.45,51.06 163.68,51.96 163.10,52.68 161.72,53.23"/>
    </edge>
    <edge id=":983504110_0" function="internal">
        <lane id=":983504110_0_0" index="0" disallow="tram rail_urban rail rail_electric ship" speed="13.89" length="0.10" shape="86.01,25.39 86.01,25.48"/>
    </edge>
    <edge id=":983504110_1" function="internal">
        <lane id=":983504110_1_0" index="0" disallow="tram rail_urban rail rail_electric ship" speed="13.89" length="2.41" shape="86.01,25.39 86.81,24.14 87.63,23.71"/>
    </edge>
    <edge id=":983504110_5" function="internal">
        <lane id=":983504110_5_0" index="0" speed="13.89" length="2.41" shape="87.63,23.71 88.46,24.11 89.31,25.33"/>
    </edge>
    <edge id=":983504110_2" function="internal">
        <lane id=":983504110_2_0" index="0" disallow="tram rail_urban rail rail_electric ship" speed="13.89" length="0.18" shape="92.60,25.00 92.61,25.26"/>
        <lane id=":983504110_2_1" index="1" disallow="tram rail_urban rail rail_electric ship" speed="13.89" length="0.18" shape="89.31,25.24 89.31,25.33"/>
    </edge>
    <edge id=":983504110_4" function="internal">
        <lane id=":983504110_4_0" index="0" disallow="tram rail_urban rail rail_electric ship" speed="13.89" length="2.41" shape="89.31,25.24 88.57,26.53 87.78,27.01"/>
    </edge>
    <edge id=":983504110_6" function="internal">
        <lane id=":983504110_6_0" index="0" speed="13.89" length="2.41" shape="87.78,27.01 86.93,26.66 86.01,25.48"/>
    </edge>
    <edge id=":983504144_0" function="internal">
        <lane id=":983504144_0_0" index="0" disallow="tram rail_urban rail rail_electric ship" speed="13.89" length="0.10" shape="73.61,25.02 73.68,25.05"/>
    </edge>
    <edge id=":983504144_1" function="internal">
        <lane id=":983504144_1_0" index="0" disallow="tram rail_urban rail rail_electric ship" speed="13.89" length="2.41" shape="73.61,25.02 72.85,23.74 72.83,22.81"/>
    </edge>
    <edge id=":983504144_5" function="internal">
        <lane id=":983504144_5_0" index="0" speed="13.89" length="2.41" shape="72.83,22.81 73.56,22.25 75.04,22.04"/>
    </edge>
    <edge id=":983504144_2" function="internal">
        <lane id=":983504144_2_0" index="0" disallow="tram rail_urban rail rail_electric ship" speed="13.89" length="0.16" shape="76.26,18.97 76.47,19.07"/>
        <lane id=":983504144_2_1" index="1" disallow="tram rail_urban rail rail_electric ship" speed="13.89" length="0.16" shape="74.97,22.01 75.04,22.04"/>
    </edge>
    <edge id=":983504144_4" function="internal">
        <lane id=":983504144_4_0" index="0" disallow="tram rail_urban rail rail_electric ship" speed="13.89" length="2.41" shape="74.97,22.01 75.78,23.25 75.84,24.18"/>
    </edge>
    <edge id=":983504144_6" function="internal">
        <lane id=":983504144_6_0" index="0" speed="13.89" length="2.41" shape="75.84,24.18 75.14,24.77 73.68,25.05"/>
    </edge>
    <edge id=":983504245_0" function="internal">
        <lane id=":983504245_0_0" index="0" disallow="tram rail_urban rail rail_electric ship" speed="13.89" length="0.35" shape="90.03,53.71 90.04,54.07"/>
    </edge>
    <edge id=":983504245_1" function="internal">
        <lane id=":983504245_1_0" index="0" disallow="tram rail_urban rail rail_electric ship" speed="13.89" length="2.41" shape="90.03,53.71 89.24,54.97 88.43,55.41"/>
    </edge>
    <edge id=":983504245_5" function="internal">
        <lane id=":983504245_5_0" index="0" speed="13.89" length="2.41" shape="88.43,55.41 87.59,55.02 86.73,53.80"/>
    </edge>
    <edge id=":983504245_2" function="internal">
        <lane id=":983504245_2_0" index="0" disallow="tram rail_urban rail rail_electric ship" speed="13.89" length="0.21" shape="83.44,54.05 83.44,53.89"/>
        <lane id=":983504245_2_1" index="1" disallow="tram rail_urban rail rail_electric ship" speed="13.89" length="0.21" shape="86.74,54.06 86.73,53.80"/>
    </edge>
    <edge id=":983504245_4" function="internal">
        <lane id=":983504245_4_0" index="0" disallow="tram rail_urban rail rail_electric ship" speed="13.89" length="2.41" shape="86.74,54.06 87.57,52.82 88.39,52.41"/>
    </edge>
    <edge id=":983504245_6" function="internal">
        <lane id=":983504245_6_0" index="0" speed="13.89" length="2.41" shape="88.39,52.41 89.22,52.83 90.04,54.07"/>
    </edge>

    <edge id="-174738182#0" from="983504144" to="282770927" priority="4" type="highway.residential" shape="74.32,23.53 68.28,20.96 49.44,14.86 31.99,10.95 0.00,4.99">
        <lane id="-174738182#0_0" index="0" disallow="tram rail_urban rail rail_electric ship" speed="13.89" length="76.43" shape="73.68,25.05 67.70,22.51 49.00,16.45 31.66,12.57 -0.30,6.61"/>
    </edge>
    <edge id="-174738182#1" from="26407849" to="983504144" priority="4" type="highway.residential">
        <lane id="-174738182#1_0" index="0" disallow="tram rail_urban rail rail_electric ship" speed="13.89" length="7.71" shape="80.55,28.36 73.61,25.02"/>
    </edge>
    <edge id="-26026344#0" from="983504245" to="26407849" priority="9" type="highway.primary">
        <lane id="-26026344#0_0" index="0" disallow="tram rail_urban rail rail_electric ship" speed="13.89" length="13.53" shape="83.44,53.89 83.08,40.36"/>
        <lane id="-26026344#0_1" index="1" disallow="tram rail_urban rail rail_electric ship" speed="13.89" length="13.53" shape="86.73,53.80 86.38,40.27"/>
    </edge>
    <edge id="-26026344#1" from="291327872" to="983504245" priority="9" type="highway.primary">
        <lane id="-26026344#1_0" index="0" disallow="tram rail_urban rail rail_electric ship" speed="13.89" length="24.47" shape="83.38,78.52 83.44,54.05"/>
        <lane id="-26026344#1_1" index="1" disallow="tram rail_urban rail rail_electric ship" speed="13.89" length="24.47" shape="86.68,78.53 86.74,54.06"/>
    </edge>
    <edge id="-26394320" from="289155573" to="289155572" priority="9" type="highway.primary">
        <lane id="-26394320_0" index="0" disallow="tram rail_urban rail rail_electric ship" speed="13.89" length="22.81" shape="85.83,22.86 84.77,0.08"/>
    </edge>
    <edge id="-26394321#0" from="983504110" to="289155573" priority="9" type="highway.primary">
        <lane id="-26394321#0_0" index="0" disallow="tram rail_urban rail rail_electric ship" speed="13.89" length="2.27" shape="86.01,25.48 85.85,23.22"/>
    </edge>
    <edge id="-26394321#1" from="26407849" to="983504110" priority="9" type="highway.primary">
        <lane id="-26394321#1_0" index="0" disallow="tram rail_urban rail rail_electric ship" speed="13.89" length="2.56" shape="86.06,27.95 86.01,25.39"/>
    </edge>
    <edge id="-26541858#0" from="1284932583" to="26407849" priority="4" type="highway.residential">
        <lane id="-26541858#0_0" index="0" disallow="tram rail_urban rail rail_electric ship" speed="13.89" length="10.60" shape="102.97,42.00 93.25,37.77"/>
        <lane id="-26541858#0_1" index="1" disallow="tram rail_urban rail rail_electric ship" speed="13.89" length="10.60" shape="104.29,38.97 94.56,34.75"/>
    </edge>
    <edge id="-26541858#1" from="307447548" to="1284932583" priority="4" type="highway.residential" shape="162.07,51.61 125.41,43.78 122.07,43.06 105.09,37.52">
        <lane id="-26541858#1_0" index="0" disallow="tram rail_urban rail rail_electric ship" speed="13.89" length="58.95" shape="161.03,56.45 124.37,48.62 120.78,47.84 103.70,42.28"/>
        <lane id="-26541858#1_1" index="1" disallow="tram rail_urban rail rail_electric ship" speed="13.89" length="58.95" shape="161.72,53.23 125.07,45.39 121.64,44.65 104.72,39.14"/>
    </edge>
    <edge id="174738182#0" from="282770927" to="983504144" priority="4" type="highway.residential" shape="0.00,4.99 31.99,10.95 49.44,14.86 68.28,20.96 74.32,23.53">
        <lane id="174738182#0_0" index="0" disallow="tram rail_urban rail rail_electric ship" speed="13.89" length="77.51" shape="0.91,0.12 32.99,6.10 50.74,10.08 70.01,16.32 76.26,18.97"/>
        <lane id="174738182#0_1" index="1" disallow="tram rail_urban rail rail_electric ship" speed="13.89" length="77.51" shape="0.30,3.37 32.33,9.34 49.87,13.27 68.85,19.41 74.97,22.01"/>
    </edge>
    <edge id="174738182#1" from="983504144" to="26407849" priority="4" type="highway.residential">
        <lane id="174738182#1_0" index="0" disallow="tram rail_urban rail rail_electric ship" speed="13.89" length="7.71" shape="76.47,19.07 83.41,22.41"/>
        <lane id="174738182#1_1" index="1" disallow="tram rail_urban rail rail_electric ship" speed="13.89" length="7.71" shape="75.04,22.04 81.98,25.38"/>
    </edge>
    <edge id="26026344#0" from="26407849" to="983504245" priority="9" type="highway.primary">
        <lane id="26026344#0_0" index="0" disallow="tram rail_urban rail rail_electric ship" speed="13.89" length="13.53" shape="89.67,40.18 90.03,53.71"/>
    </edge>
    <edge id="26026344#1" from="983504245" to="291327872" priority="9" type="highway.primary">
        <lane id="26026344#1_0" index="0" disallow="tram rail_urban rail rail_electric ship" speed="13.89" length="24.47" shape="90.04,54.07 89.98,78.54"/>
    </edge>
    <edge id="26394320" from="289155572" to="289155573" priority="9" type="highway.primary">
        <lane id="26394320_0" index="0" disallow="tram rail_urban rail rail_electric ship" speed="13.89" length="22.81" shape="91.37,-0.23 92.42,22.56"/>
        <lane id="26394320_1" index="1" disallow="tram rail_urban rail rail_electric ship" speed="13.89" length="22.81" shape="88.07,-0.08 89.12,22.71"/>
    </edge>
    <edge id="26394321#0" from="289155573" to="983504110" priority="9" type="highway.primary">
        <lane id="26394321#0_0" index="0" disallow="tram rail_urban rail rail_electric ship" speed="13.89" length="2.27" shape="92.43,22.73 92.60,25.00"/>
        <lane id="26394321#0_1" index="1" disallow="tram rail_urban rail rail_electric ship" speed="13.89" length="2.27" shape="89.14,22.97 89.31,25.24"/>
    </edge>
    <edge id="26394321#1" from="983504110" to="26407849" priority="9" type="highway.primary">
        <lane id="26394321#1_0" index="0" disallow="tram rail_urban rail rail_electric ship" speed="13.89" length="2.56" shape="92.61,25.26 92.66,27.82"/>
        <lane id="26394321#1_1" index="1" disallow="tram rail_urban rail rail_electric ship" speed="13.89" length="2.56" shape="89.31,25.33 89.36,27.88"/>
    </edge>
    <edge id="26541858#0" from="26407849" to="1284932583" priority="4" type="highway.residential">
        <lane id="26541858#0_0" index="0" disallow="tram rail_urban rail rail_electric ship" speed="13.89" length="10.60" shape="95.88,31.72 105.60,35.95"/>
    </edge>
    <edge id="26541858#1" from="1284932583" to="307447548" priority="4" type="highway.residential" shape="105.09,37.52 122.07,43.06 125.41,43.78 162.07,51.61">
        <lane id="26541858#1_0" index="0" disallow="tram rail_urban rail rail_electric ship" speed="13.89" length="58.44" shape="105.74,36.00 122.50,41.46 125.76,42.16 162.41,50.00"/>
    </edge>

    <tlLogic id="1284932583" type="static" programID="0" offset="0">
        <phase duration="82" state="GGgGg"/>
        <phase duration="3" state="yyyyy"/>
        <phase duration="5" state="rrrrr"/>
    </tlLogic>
    <tlLogic id="26407849" type="static" programID="0" offset="0">
        <phase duration="33" state="GGggrrrrGGggrrrr"/>
        <phase duration="3" state="yyggrrrryyggrrrr"/>
        <phase duration="6" state="rrGGrrrrrrGGrrrr"/>
        <phase duration="3" state="rryyrrrrrryyrrrr"/>
        <phase duration="33" state="rrrrGGggrrrrGGgg"/>
        <phase duration="3" state="rrrryyggrrrryygg"/>
        <phase duration="6" state="rrrrrrGGrrrrrrGG"/>
        <phase duration="3" state="rrrrrryyrrrrrryy"/>
    </tlLogic>
    <tlLogic id="983504110" type="static" programID="0" offset="0">
        <phase duration="82" state="GgGGg"/>
        <phase duration="3" state="yyyyy"/>
        <phase duration="5" state="rrrrr"/>
    </tlLogic>
    <tlLogic id="983504144" type="static" programID="0" offset="0">
        <phase duration="82" state="GgGGg"/>
        <phase duration="3" state="yyyyy"/>
        <phase duration="5" state="rrrrr"/>
    </tlLogic>
    <tlLogic id="983504245" type="static" programID="0" offset="0">
        <phase duration="82" state="GgGGg"/>
        <phase duration="3" state="yyyyy"/>
        <phase duration="5" state="rrrrr"/>
    </tlLogic>

    <junction id="1284932583" type="traffic_light" x="105.09" y="37.52" incLanes="-26541858#1_0 -26541858#1_1 26541858#0_0" intLanes=":1284932583_0_0 :1284932583_0_1 :1284932583_5_0 :1284932583_3_0 :1284932583_6_0" shape="103.20,43.80 106.24,34.48 102.33,43.47">
        <request index="0" response="00000" foes="10000" cont="0"/>
        <request index="1" response="00000" foes="10000" cont="0"/>
        <request index="2" response="01000" foes="01000" cont="1"/>
        <request index="3" response="00000" foes="00100" cont="0"/>
        <request index="4" response="00011" foes="00011" cont="1"/>
    </junction>
    <junction id="26407849" type="traffic_light" x="87.75" y="29.99" incLanes="-26026344#0_0 -26026344#0_1 -26541858#0_0 -26541858#0_1 26394321#1_0 26394321#1_1 174738182#1_0 174738182#1_1" intLanes=":26407849_0_0 :26407849_1_0 :26407849_16_0 :26407849_17_0 :26407849_4_0 :26407849_5_0 :26407849_6_0 :26407849_18_0 :26407849_8_0 :26407849_9_0 :26407849_19_0 :26407849_20_0 :26407849_12_0 :26407849_13_0 :26407849_21_0 :26407849_22_0" shape="81.48,40.40 91.27,40.14 92.61,39.24 96.52,30.25 94.26,27.79 84.46,27.98 84.11,20.97 79.86,29.80">
        <request index="0" response="0000000000000000" foes="1000010000100000" cont="0"/>
        <request index="1" response="0000000000000000" foes="0111110001100000" cont="0"/>
        <request index="2" response="0000001100000000" foes="0110001111100000" cont="1"/>
        <request index="3" response="0100001000010000" foes="0100001000010000" cont="1"/>
        <request index="4" response="0000001000000000" foes="0100001000001000" cont="0"/>
        <request index="5" response="0000011000000111" foes="1100011000000111" cont="0"/>
        <request index="6" response="0011011000000110" foes="0011111000000110" cont="0"/>
        <request index="7" response="0010000100000100" foes="0010000100000100" cont="1"/>
        <request index="8" response="0000000000000000" foes="0010000010000100" cont="0"/>
        <request index="9" response="0000000000000000" foes="0110000001111100" cont="0"/>
        <request index="10" response="0000000000000011" foes="1110000001100011" cont="1"/>
        <request index="11" response="0001000001000010" foes="0001000001000010" cont="1"/>
        <request index="12" response="0000000000000010" foes="0000100001000010" cont="0"/>
        <request index="13" response="0000011100000110" foes="0000011111000110" cont="0"/>
        <request index="14" response="0000011000110110" foes="0000011000111110" cont="1"/>
        <request index="15" response="0000010000100001" foes="0000010000100001" cont="1"/>
    </junction>
    <junction id="282770927" type="priority" x="0.00" y="4.99" incLanes="-174738182#0_0" intLanes=":282770927_0_0" shape="0.01,4.94 -0.60,8.18 -0.01,5.04">
        <request index="0" response="0" foes="0" cont="0"/>
    </junction>
    <junction id="289155572" type="priority" x="86.42" y="0.00" incLanes="-26394320_0" intLanes=":289155572_0_0" shape="86.47,-0.00 83.17,0.15 86.37,0.00">
        <request index="0" response="0" foes="0" cont="0"/>