<?xml version="1.0" encoding="UTF-8"?>

<!-- generated on 27-Nov-17 18:54:12 by Netedit Version 0.31.0
<?xml version="1.0" encoding="UTF-8"?>

<configuration xmlns:xsi="http://www.w3.org/2001/XMLSchema-instance" xsi:noNamespaceSchemaLocation="http://sumo.dlr.de/xsd/netconvertConfiguration.xsd">

    <input>
        <sumo-net-file value="C:\Users\juraj.sojcak\Documents\NetBeansProjects\sumo_jade\src\sumo_jade\simulation\example.net.xml"/>
    </input>

    <output>
        <output-file value="C:\Users\juraj.sojcak\Documents\NetBeansProjects\sumo_jade\src\sumo_jade\simulation\example.net.xml"/>
        <junctions.join-output value=""/>
    </output>

    <processing>
        <no-turnarounds value="true"/>
        <offset.disable-normalization value="true"/>
        <lefthand value="false"/>
        <junctions.corner-detail value="0"/>
        <rectangular-lane-cut value="false"/>
        <walkingareas value="false"/>
    </processing>

    <visualisation>
        <registry-viewport value="true"/>
    </visualisation>

</configuration>
-->

<net version="0.27" xmlns:xsi="http://www.w3.org/2001/XMLSchema-instance" xsi:noNamespaceSchemaLocation="http://sumo.dlr.de/xsd/net_file.xsd">

    <location netOffset="0.00,0.00" convBoundary="-74.28,-2.86,202.88,150.21" origBoundary="-10000000000.00,-10000000000.00,10000000000.00,10000000000.00" projParameter="!"/>

    <edge id=":gneJ1_0" function="internal">
        <lane id=":gneJ1_0_0" index="0" speed="13.89" length="7.34" shape="41.53,57.87 39.03,57.29 37.13,57.31 35.82,57.93 35.11,59.16"/>
    </edge>
    <edge id=":gneJ1_1" function="internal">
        <lane id=":gneJ1_1_0" index="0" speed="13.89" length="6.12" shape="42.53,54.72 38.80,52.94 37.47,51.47"/>
    </edge>
    <edge id=":gneJ1_10" function="internal">
        <lane id=":gneJ1_10_0" index="0" speed="13.89" length="9.08" shape="37.47,51.47 36.47,50.37 35.54,47.04 36.02,42.93"/>
    </edge>
    <edge id=":gneJ1_2" function="internal">
        <lane id=":gneJ1_2_0" index="0" speed="13.89" length="4.94" shape="42.41,44.60 42.25,45.93 42.55,47.02 43.31,47.85 44.52,48.43"/>
    </edge>
    <edge id=":gneJ1_3" function="internal">
        <lane id=":gneJ1_3_0" index="0" speed="13.89" length="15.93" shape="39.21,43.76 35.11,59.16"/>
    </edge>
    <edge id=":gneJ1_4" function="internal">
        <lane id=":gneJ1_4_0" index="0" speed="13.89" length="9.23" shape="27.72,45.48 31.06,45.45 33.56,45.02 35.22,44.18 36.02,42.93"/>
    </edge>
    <edge id=":gneJ1_5" function="internal">
        <lane id=":gneJ1_5_0" index="0" speed="13.89" length="16.72" shape="27.72,45.48 32.79,45.75 36.26,46.14 39.66,46.94 44.52,48.43"/>
        <lane id=":gneJ1_5_1" index="1" speed="13.89" length="16.72" shape="27.56,48.77 32.38,49.03 35.68,49.41 38.91,50.16 43.52,51.58"/>
    </edge>
    <edge id=":gneJ1_7" function="internal">
        <lane id=":gneJ1_7_0" index="0" speed="13.89" length="12.66" shape="27.56,48.77 31.87,49.61 34.56,51.62 35.64,54.80 35.45,56.33"/>
    </edge>
    <edge id=":gneJ1_11" function="internal">
        <lane id=":gneJ1_11_0" index="0" speed="13.89" length="2.85" shape="35.45,56.33 35.11,59.16"/>
    </edge>
    <edge id=":gneJ1_8" function="internal">
        <lane id=":gneJ1_8_0" index="0" speed="13.89" length="16.30" shape="28.74,57.43 30.59,52.54 32.70,49.05 34.65,46.13 36.02,42.93"/>
    </edge>
    <edge id=":gneJ1_9" function="internal">
        <lane id=":gneJ1_9_0" index="0" speed="13.89" length="6.49" shape="31.92,58.29 33.62,54.29 35.15,52.78"/>
    </edge>
    <edge id=":gneJ1_12" function="internal">
        <lane id=":gneJ1_12_0" index="0" speed="13.89" length="8.94" shape="35.15,52.78 36.12,51.83 39.42,50.93 43.52,51.58"/>
    </edge>
    <edge id=":gneJ3_0" function="internal">
        <lane id=":gneJ3_0_0" index="0" speed="13.89" length="7.23" shape="105.25,78.46 102.83,77.76 100.97,77.71 99.67,78.29 98.93,79.51"/>
    </edge>
    <edge id=":gneJ3_1" function="internal">
        <lane id=":gneJ3_1_0" index="0" speed="13.89" length="12.28" shape="105.25,78.46 93.76,74.40"/>
        <lane id=":gneJ3_1_1" index="1" speed="13.89" length="12.28" shape="106.41,75.37 94.75,71.25"/>
    </edge>
    <edge id=":gneJ3_3" function="internal">
        <lane id=":gneJ3_3_0" index="0" speed="13.89" length="6.08" shape="106.41,75.37 102.77,73.36 101.57,71.86"/>
    </edge>
    <edge id=":gneJ3_14" function="internal">
        <lane id=":gneJ3_14_0" index="0" speed="13.89" length="9.38" shape="101.57,71.86 100.59,70.62 99.88,67.16 100.64,62.96"/>
    </edge>
    <edge id=":gneJ3_4" function="internal">
        <lane id=":gneJ3_4_0" index="0" speed="13.89" length="5.14" shape="106.91,65.02 106.65,66.45 106.86,67.62 107.56,68.53 108.73,69.19"/>
    </edge>
    <edge id=":gneJ3_5" function="internal">
        <lane id=":gneJ3_5_0" index="0" speed="13.89" length="16.26" shape="103.78,63.99 98.93,79.51"/>
    </edge>
    <edge id=":gneJ3_6" function="internal">
        <lane id=":gneJ3_6_0" index="0" speed="13.89" length="7.49" shape="103.78,63.99 102.09,67.88 100.02,70.39"/>
    </edge>
    <edge id=":gneJ3_15" function="internal">
        <lane id=":gneJ3_15_0" index="0" speed="13.89" length="5.52" shape="100.02,70.39 97.57,71.51 94.75,71.25"/>
    </edge>
    <edge id=":gneJ3_7" function="internal">
        <lane id=":gneJ3_7_0" index="0" speed="13.89" length="4.99" shape="96.74,64.96 98.09,65.18 99.19,64.92 100.04,64.18 100.64,62.96"/>
    </edge>
    <edge id=":gneJ3_8" function="internal">
        <lane id=":gneJ3_8_0" index="0" speed="13.89" length="12.63" shape="96.74,64.96 108.73,69.19"/>
        <lane id=":gneJ3_8_1" index="1" speed="13.89" length="12.63" shape="95.75,68.11 107.57,72.28"/>
    </edge>
    <edge id=":gneJ3_10" function="internal">
        <lane id=":gneJ3_10_0" index="0" speed="13.89" length="4.62" shape="95.75,68.11 98.20,69.53 99.08,71.08"/>
    </edge>
    <edge id=":gneJ3_16" function="internal">
        <lane id=":gneJ3_16_0" index="0" speed="13.89" length="8.65" shape="99.08,71.08 99.55,71.91 99.79,75.24 98.93,79.51"/>
    </edge>
    <edge id=":gneJ3_11" function="internal">
        <lane id=":gneJ3_11_0" index="0" speed="13.89" length="5.26" shape="95.77,78.57 96.00,77.10 95.74,75.91 95.00,75.01 93.76,74.40"/>
    </edge>
    <edge id=":gneJ3_12" function="internal">
        <lane id=":gneJ3_12_0" index="0" speed="13.89" length="16.36" shape="95.77,78.57 100.64,62.96"/>
    </edge>
    <edge id=":gneJ3_13" function="internal">
        <lane id=":gneJ3_13_0" index="0" speed="13.89" length="6.75" shape="95.77,78.57 97.58,74.56 99.30,72.97"/>
    </edge>
    <edge id=":gneJ3_17" function="internal">
        <lane id=":gneJ3_17_0" index="0" speed="13.89" length="8.76" shape="99.30,72.97 100.15,72.18 103.48,71.42 107.57,72.28"/>
    </edge>

    <edge id="gneE0" from="gneJ0" to="gneJ1" priority="1">
        <lane id="gneE0_0" index="0" speed="13.89" length="101.88" shape="-74.04,40.50 27.72,45.48"/>
        <lane id="gneE0_1" index="1" speed="13.89" length="101.88" shape="-74.20,43.79 27.56,48.77"/>
    </edge>
    <edge id="gneE10" from="gneJ11" to="gneJ3" priority="1">
        <lane id="gneE10_0" index="0" speed="13.89" length="102.43" shape="201.14,114.48 105.25,78.46"/>
        <lane id="gneE10_1" index="1" speed="13.89" length="102.43" shape="202.30,111.39 106.41,75.37"/>
    </edge>
    <edge id="gneE11" from="gneJ3" to="gneJ12" priority="1">
        <lane id="gneE11_0" index="0" speed="13.89" length="40.31" shape="100.64,62.96 113.22,24.67"/>
    </edge>
    <edge id="gneE12" from="gneJ12" to="gneJ3" priority="1">
        <lane id="gneE12_0" index="0" speed="13.89" length="40.31" shape="119.49,26.72 106.91,65.02"/>
        <lane id="gneE12_1" index="1" speed="13.89" length="40.31" shape="116.36,25.69 103.78,63.99"/>
    </edge>
    <edge id="gneE15" from="gneJ15" to="gneJ3" priority="1">
        <lane id="gneE15_0" index="0" speed="13.89" length="74.23" shape="74.65,149.74 95.77,78.57"/>
    </edge>
    <edge id="gneE16" from="gneJ3" to="gneJ15" priority="1">
        <lane id="gneE16_0" index="0" speed="13.89" length="74.23" shape="98.93,79.51 77.81,150.68"/>
    </edge>
    <edge id="gneE2" from="gneJ2" to="gneJ1" priority="1">
        <lane id="gneE2_0" index="0" speed="13.89" length="67.92" shape="10.93,122.97 28.74,57.43"/>
        <lane id="gneE2_1" index="1" speed="13.89" length="67.92" shape="14.12,123.84 31.92,58.29"/>
    </edge>
    <edge id="gneE3" from="gneJ1" to="gneJ2" priority="1">
        <lane id="gneE3_0" index="0" speed="13.89" length="67.92" shape="35.11,59.16 17.30,124.70"/>
    </edge>
    <edge id="gneE4" from="gneJ3" to="gneJ1" priority="1">
        <lane id="gneE4_0" index="0" speed="13.89" length="54.77" shape="93.76,74.40 41.53,57.87"/>
        <lane id="gneE4_1" index="1" speed="13.89" length="54.77" shape="94.75,71.25 42.53,54.72"/>
    </edge>
    <edge id="gneE5" from="gneJ1" to="gneJ3" priority="1">
        <lane id="gneE5_0" index="0" speed="13.89" length="54.77" shape="44.52,48.43 96.74,64.96"/>
        <lane id="gneE5_1" index="1" speed="13.89" length="54.77" shape="43.52,51.58 95.75,68.11"/>
    </edge>
    <edge id="gneE7" from="gneJ7" to="gneJ1" priority="1">
        <lane id="gneE7_0" index="0" speed="13.89" length="47.76" shape="54.50,-1.61 42.41,44.60"/>
        <lane id="gneE7_1" index="1" speed="13.89" length="47.76" shape="51.31,-2.44 39.21,43.76"/>
    </edge>
    <edge id="gneE8" from="gneJ1" to="gneJ7" priority="1">
        <lane id="gneE8_0" index="0" speed="13.89" length="47.76" shape="36.02,42.93 48.11,-3.28"/>
    </edge>
    <edge id="gneE9" from="gneJ3" to="gneJ11" priority="1">
        <lane id="gneE9_0" index="0" speed="13.89" length="102.43" shape="108.73,69.19 204.62,105.22"/>
        <lane id="gneE9_1" index="1" speed="13.89" length="102.43" shape="107.57,72.28 203.46,108.31"/>
    </edge>

    <tlLogic id="gneJ1" type="static" programID="0" offset="0">
        <phase duration="33" state="rrGGrrrrGg"/>
        <phase duration="3" state="rryyrrrryg"/>
        <phase duration="6" state="rrrrrrrrrG"/>
        <phase duration="3" state="rrrrrrrrry"/>
        <phase duration="33" state="GgrrGGGgrr"/>
        <phase duration="3" state="ygrryyygrr"/>
        <phase duration="6" state="rGrrrrrGrr"/>
        <phase duration="3" state="ryrrrrryrr"/>
    </tlLogic>
    <tlLogic id="gneJ3" type="static" programID="0" offset="0">
        <phase duration="33" state="GGGgrrrGGGgrrr"/>
        <phase duration="3" state="yyygrrryyygrrr"/>
        <phase duration="6" state="rrrGrrrrrrGrrr"/>
        <phase duration="3" state="rrryrrrrrryrrr"/>
        <phase duration="33" state="rrrrGGgrrrrGGg"/>
        <phase duration="3" state="rrrryygrrrryyg"/>
        <phase duration="6" state="rrrrrrGrrrrrrG"/>
        <phase duration="3" state="rrrrrryrrrrrry"/>
    </tlLogic>

    <junction id="gneJ0" type="dead_end" x="-74.28" y="45.44" incLanes="" intLanes="" shape="-74.28,45.39 -73.96,38.90"/>
    <junction id="gneJ1" type="traffic_light" x="35.66" y="50.82" incLanes="gneE4_0 gneE4_1 gneE7_0 gneE7_1 gneE0_0 gneE0_1 gneE2_0 gneE2_1" intLanes=":gneJ1_0_0 :gneJ1_10_0 :gneJ1_2_0 :gneJ1_3_0 :gneJ1_4_0 :gneJ1_5_0 :gneJ1_5_1 :gneJ1_11_0 :gneJ1_8_0 :gneJ1_12_0" shape="41.05,59.40 45.00,46.91 43.95,45.00 34.47,42.52 27.79,43.88 27.48,50.37 27.19,57.01 36.65,59.58">
        <request index="0" response="0000001000" foes="0010001000" cont="0"/>
        <request index="1" response="1101111000" foes="1101111000" cont="1"/>
        <request index="2" response="0000000000" foes="1001100000" cont="0"/>
        <request index="3" response="0000000000" foes="1011100011" cont="0"/>
        <request index="4" response="0100000000" foes="0100000010" cont="0"/>
        <request index="5" response="1100001100" foes="1100001110" cont="0"/>
        <request index="6" response="1100001100" foes="1100001110" cont="0"/>
        <request index="7" response="1100001001" foes="1100001001" cont="1"/>
        <request index="8" response="0000000000" foes="0011110010" cont="0"/>
        <request index="9" response="0000001100" foes="0011101110" cont="1"/>
    </junction>
    <junction id="gneJ11" type="dead_end" x="202.88" y="109.85" incLanes="gneE9_0 gneE9_1" intLanes="" shape="202.86,109.90 205.18,103.72 202.90,109.80"/>
    <junction id="gneJ12" type="dead_end" x="114.79" y="25.18" incLanes="gneE11_0" intLanes="" shape="114.84,25.20 111.70,24.17 114.74,25.16"/>
    <junction id="gneJ15" type="dead_end" x="76.23" y="150.21" incLanes="gneE16_0" intLanes="" shape="76.18,150.20 79.35,151.13 76.28,150.22"/>
    <junction id="gneJ2" type="dead_end" x="15.71" y="124.27" incLanes="gneE3_0" intLanes="" shape="15.66,124.26 18.85,125.12 15.76,124.28"/>
    <junction id="gneJ3" type="traffic_light" x="99.71" y="71.09" incLanes="gneE10_0 gneE10_1 gneE12_0 gneE12_1 gneE5_0 gneE5_1 gneE15_0" intLanes=":gneJ3_0_0 :gneJ3_1_0 :gneJ3_1_1 :gneJ3_14_0 :gneJ3_4_0 :gneJ3_5_0 :gneJ3_15_0 :gneJ3_7_0 :gneJ3_8_0 :gneJ3_8_1 :gneJ3_16_0 :gneJ3_11_0 :gneJ3_12_0 :gneJ3_17_0" shape="104.69,79.96 109.30,67.69 108.43,65.52 99.12,62.46 97.23,63.43 93.27,75.92 94.23,78.12 100.47,79.97">
        <request index="0" response="00000000000000" foes="00010000100000" cont="0"/>
        <request index="1" response="00000000000000" foes="11110001100000" cont="0"/>
        <request index="2" response="00000000000000" foes="11110001100000" cont="0"/>
        <request index="3" response="00001110000000" foes="11001111100000" cont="1"/>
        <request index="4" response="00001100000000" foes="10001100000000" cont="0"/>
        <request index="5" response="00011100001111" foes="10011100001111" cont="0"/>
        <request index="6" response="01111100001110" foes="01111100001110" cont="1"/>
        <request index="7" response="00000000000000" foes="01000000001000" cont="0"/>
        <request index="8" response="00000000000000" foes="11000001111000" cont="0"/>
        <request index="9" response="00000000000000" foes="11000001111000" cont="0"/>
        <request index="10" response="00000000000111" foes="11000001100111" cont="1"/>
        <request index="11" response="00000000000110" foes="00000001000110" cont="0"/>
        <request index="12" response="00011110001110" foes="00011111001110" cont="0"/>
        <request index="13" response="00011100111110" foes="00011100111110" cont="1"/>
    </junction>
    <junction id="gneJ7" type="dead_end" x="49.71" y="-2.86" incLanes="gneE8_0" intLanes="" shape="49.76,-2.85 46.57,-3.68 49.66,-2.87"/>

    <junction id=":gneJ1_10_0" type="internal" x="37.47" y="51.47" incLanes=":gneJ1_1_0 gneE0_0 gneE0_1" intLanes=":gneJ1_3_0 :gneJ1_4_0 :gneJ1_5_0 :gneJ1_5_1 :gneJ1_8_0 :gneJ1_9_0"/>
    <junction id=":gneJ1_11_0" type="internal" x="35.45" y="56.33" incLanes=":gneJ1_7_0 gneE4_0" intLanes=":gneJ1_0_0 :gneJ1_3_0 :gneJ1_8_0 :gneJ1_9_0"/>
    <junction id=":gneJ1_12_0" type="internal" x="35.15" y="52.78" incLanes=":gneJ1_9_0 gneE7_0 gneE7_1" intLanes=":gneJ1_1_0 :gneJ1_2_0 :gneJ1_3_0 :gneJ1_5_0 :gneJ1_5_1 :gneJ1_7_0"/>
    <junction id=":gneJ3_14_0" type="internal" x="101.57" y="71.86" incLanes=":gneJ3_3_0 gneE5_0 gneE5_1" intLanes=":gneJ3_5_0 :gneJ3_6_0 :gneJ3_7_0 :gneJ3_8_0 :gneJ3_8_1 :gneJ3_12_0 :gneJ3_13_0"/>
    <junction id=":gneJ3_15_0" type="internal" x="100.02" y="70.39" incLanes=":gneJ3_6_0 gneE15_0" intLanes=":gneJ3_1_0 :gneJ3_1_1 :gneJ3_3_0 :gneJ3_8_0 :gneJ3_8_1 :gneJ3_10_0 :gneJ3_11_0 :gneJ3_12_0"/>
    <junction id=":gneJ3_16_0" type="internal" x="99.08" y="71.08" incLanes=":gneJ3_10_0 gneE10_0 gneE10_1" intLanes=":gneJ3_0_0 :gneJ3_1_0 :gneJ3_1_1 :gneJ3_5_0 :gneJ3_6_0 :gneJ3_12_0 :gneJ3_13_0"/>
    <junction id=":gneJ3_17_0" type="internal" x="99.30" y="72.97" incLanes=":gneJ3_13_0 gneE12_0 gneE12_1" intLanes=":gneJ3_1_0 :gneJ3_1_1 :gneJ3_3_0 :gneJ3_4_0 :gneJ3_5_0 :gneJ3_8_0 :gneJ3_8_1 :gneJ3_10_0"/>

    <connection from="gneE0" to="gneE8" fromLane="0" toLane="0" via=":gneJ1_4_0" tl="gneJ1" linkIndex="4" dir="r" state="o"/>
    <connection from="gneE0" to="gneE5" fromLane="0" toLane="0" via=":gneJ1_5_0" tl="gneJ1" linkIndex="5" dir="s" state="o"/>
    <connection from="gneE0" to="gneE5" fromLane="1" toLane="1" via=":gneJ1_5_1" tl="gneJ1" linkIndex="6" dir="s" state="o"/>
    <connection from="gneE0" to="gneE3" fromLane="1" toLane="0" via=":gneJ1_7_0" tl="gneJ1" linkIndex="7" dir="l" state="o"/>
    <connection from="gneE10" to="gneE16" fromLane="0" toLane="0" via=":gneJ3_0_0" tl="gneJ3" linkIndex="0" dir="r" state="o"/>
    <connection from="gneE10" to="gneE4" fromLane="0" toLane="0" via=":gneJ3_1_0" tl="gneJ3" linkIndex="1" dir="s" state="o"/>
    <connection from="gneE10" to="gneE4" fromLane="1" toLane="1" via=":gneJ3_1_1" tl="gneJ3" linkIndex="2" dir="s" state="o"/>
    <connection from="gneE10" to="gneE11" fromLane="1" toLane="0" via=":gneJ3_3_0" tl="gneJ3" linkIndex="3" dir="l" state="o"/>
    <connection from="gneE12" to="gneE9" fromLane="0" toLane="0" via=":gneJ3_4_0" tl="gneJ3" linkIndex="4" dir="r" state="o"/>
    <connection from="gneE12" to="gneE16" fromLane="1" toLane="0" via=":gneJ3_5_0" tl="gneJ3" linkIndex="5" dir="s" state="o"/>
    <connection from="gneE12" to="gneE4" fromLane="1" toLane="1" via=":gneJ3_6_0" tl="gneJ3" linkIndex="6" dir="l" state="o"/>
    <connection from="gneE15" to="gneE4" fromLane="0" toLane="0" via=":gneJ3_11_0" tl="gneJ3" linkIndex="11" dir="r" state="o"/>
    <connection from="gneE15" to="gneE11" fromLane="0" toLane="0" via=":gneJ3_12_0" tl="gneJ3" linkIndex="12" dir="s" state="o"/>
    <connection from="gneE15" to="gneE9" fromLane="0" toLane="1" via=":gneJ3_13_0" tl="gneJ3" linkIndex="13" dir="l" state="o"/>
    <connection from="gneE2" to="gneE8" fromLane="0" toLane="0" via=":gneJ1_8_0" tl="gneJ1" linkIndex="8" dir="s" state="o"/>
    <connection from="gneE2" to="gneE5" fromLane="1" toLane="1" via=":gneJ1_9_0" tl="gneJ1" linkIndex="9" dir="l" state="o"/>
    <connection from="gneE4" to="gneE3" fromLane="0" toLane="0" via=":gneJ1_0_0" tl="gneJ1" linkIndex="0" dir="r" state="o"/>
    <connection from="gneE4" to="gneE8" fromLane="1" toLane="0" via=":gneJ1_1_0" tl="gneJ1" linkIndex="1" dir="l" state="o"/>
    <connection from="gneE5" to="gneE11" fromLane="0" toLane="0" via=":gneJ3_7_0" tl="gneJ3" linkIndex="7" dir="r" state="o"/>
    <connection from="gneE5" to="gneE9" fromLane="0" toLane="0" via=":gneJ3_8_0" tl="gneJ3" linkIndex="8" dir="s" state="o"/>
    <connection from="gneE5" to="gneE9" fromLane="1" toLane="1" via=":gneJ3_8_1" tl="gneJ3" linkIndex="9" dir="s" state="o"/>
    <connection from="gneE5" to="gneE16" fromLane="1" toLane="0" via=":gneJ3_10_0" tl="gneJ3" linkIndex="10" dir="l" state="o"/>
    <connection from="gneE7" to="gneE5" fromLane="0" toLane="0" via=":gneJ1_2_0" tl="gneJ1" linkIndex="2" dir="r" state="o"/>
    <connection from="gneE7" to="gneE3" fromLane="1" toLane="0" via=":gneJ1_3_0" tl="gneJ1" linkIndex="3" dir="s" state="o"/>

    <connection from=":gneJ1_0" to="gneE3" fromLane="0" toLane="0" dir="s" state="M"/>
    <connection from=":gneJ1_1" to="gneE8" fromLane="0" toLane="0" via=":gneJ1_10_0" dir="s" state="m"/>
    <connection from=":gneJ1_10" to="gneE8" fromLane="0" toLane="0" dir="s" state="M"/>
    <connection from=":gneJ1_2" to="gneE5" fromLane="0" toLane="0" dir="s" state="M"/>
    <connection from=":gneJ1_3" to="gneE3" fromLane="0" toLane="0" dir="s" state="M"/>
    <connection from=":gneJ1_4" to="gneE8" fromLane="0" toLane="0" dir="s" state="M"/>
    <connection from=":gneJ1_5" to="gneE5" fromLane="0" toLane="0" dir="s" state="M"/>
    <connection from=":gneJ1_5" to="gneE5" fromLane="1" toLane="1" dir="s" state="M"/>
    <connection from=":gneJ1_7" to="gneE3" fromLane="0" toLane="0" via=":gneJ1_11_0" dir="s" state="m"/>
    <connection from=":gneJ1_11" to="gneE3" fromLane="0" toLane="0" dir="s" state="M"/>
    <connection from=":gneJ1_8" to="gneE8" fromLane="0" toLane="0" dir="s" state="M"/>
    <connection from=":gneJ1_9" to="gneE5" fromLane="0" toLane="1" via=":gneJ1_12_0" dir="s" state="m"/>
    <connection from=":gneJ1_12" to="gneE5" fromLane="0" toLane="1" dir="s" state="M"/>
    <connection from=":gneJ3_0" to="gneE16" fromLane="0" toLane="0" dir="s" state="M"/>
    <connection from=":gneJ3_1" to="gneE4" fromLane="0" toLane="0" dir="s" state="M"/>
    <connection from=":gneJ3_1" to="gneE4" fromLane="1" toLane="1" dir="s" state="M"/>
    <connection from=":gneJ3_3" to="gneE11" fromLane="0" toLane="0" via=":gneJ3_14_0" dir="s" state="m"/>
    <connection from=":gneJ3_14" to="gneE11" fromLane="0" toLane="0" dir="s" state="M"/>
    <connection from=":gneJ3_4" to="gneE9" fromLane="0" toLane="0" dir="s" state="M"/>
    <connection from=":gneJ3_5" to="gneE16" fromLane="0" toLane="0" dir="s" state="M"/>
    <connection from=":gneJ3_6" to="gneE4" fromLane="0" toLane="1" via=":gneJ3_15_0" dir="s" state="m"/>
    <connection from=":gneJ3_15" to="gneE4" fromLane="0" toLane="1" dir="s" state="M"/>
    <connection from=":gneJ3_7" to="gneE11" fromLane="0" toLane="0" dir="s" state="M"/>
    <connection from=":gneJ3_8" to="gneE9" fromLane="0" toLane="0" dir="s" state="M"/>
    <connection from=":gneJ3_8" to="gneE9" fromLane="1" toLane="1" dir="s" state="M"/>
    <connection from=":gneJ3_10" to="gneE16" fromLane="0" toLane="0" via=":gneJ3_16_0" dir="s" state="m"/>
    <connection from=":gneJ3_16" to="gneE16" fromLane="0" toLane="0" dir="s" state="M"/>
    <connection from=":gneJ3_11" to="gneE4" fromLane="0" toLane="0" dir="s" state="M"/>
    <connection from=":gneJ3_12" to="gneE11" fromLane="0" toLane="0" dir="s" state="M"/>
    <connection from=":gneJ3_13" to="gneE9" fromLane="0" toLane="1" via=":gneJ3_17_0" dir="s" state="m"/>
    <connection from=":gneJ3_17" to="gneE9" fromLane="0" toLane="1" dir="s" state="M"/>

</net>
