<?xml version="1.0" encoding="UTF-8"?>

<!-- generated on 30-Nov-17 16:28:08 by Netedit Version 0.31.0
<?xml version="1.0" encoding="UTF-8"?>

<configuration xmlns:xsi="http://www.w3.org/2001/XMLSchema-instance" xsi:noNamespaceSchemaLocation="http://sumo.dlr.de/xsd/netconvertConfiguration.xsd">

    <input>
        <sumo-net-file value="src\sumo_jade\simulation\example.net.xml"/>
    </input>

    <output>
        <output-file value="src\sumo_jade\simulation\example.net.xml"/>
    </output>

    <processing>
        <no-turnarounds value="true"/>
        <offset.disable-normalization value="true"/>
        <lefthand value="false"/>
        <junctions.corner-detail value="0"/>
        <rectangular-lane-cut value="false"/>
        <walkingareas value="false"/>
    </processing>

    <visualisation>
        <registry-viewport value="true"/>
    </visualisation>

</configuration>
-->

<net version="0.27" xmlns:xsi="http://www.w3.org/2001/XMLSchema-instance" xsi:noNamespaceSchemaLocation="http://sumo.dlr.de/xsd/net_file.xsd">

    <location netOffset="0.00,0.00" convBoundary="-226.64,-175.09,418.01,259.49" origBoundary="-10000000000.00,-10000000000.00,10000000000.00,10000000000.00" projParameter="!"/>

    <edge id=":gneJ1_0" function="internal">
        <lane id=":gneJ1_0_0" index="0" speed="13.89" length="7.60" shape="41.53,57.94 38.93,57.29 36.93,57.25 35.53,57.82 34.75,59.00"/>
    </edge>
    <edge id=":gneJ1_1" function="internal">
        <lane id=":gneJ1_1_0" index="0" speed="13.89" length="6.04" shape="42.56,54.80 38.82,52.97 37.57,51.57"/>
    </edge>
    <edge id=":gneJ1_10" function="internal">
        <lane id=":gneJ1_10_0" index="0" speed="13.89" length="9.25" shape="37.57,51.57 36.51,50.37 35.63,47.00 36.18,42.87"/>
    </edge>
    <edge id=":gneJ1_2" function="internal">
        <lane id=":gneJ1_2_0" index="0" speed="13.89" length="4.95" shape="42.54,44.66 42.36,46.00 42.64,47.09 43.39,47.93 44.60,48.53"/>
    </edge>
    <edge id=":gneJ1_3" function="internal">
        <lane id=":gneJ1_3_0" index="0" speed="13.89" length="15.91" shape="39.36,43.77 34.75,59.00"/>
    </edge>
    <edge id=":gneJ1_4" function="internal">
        <lane id=":gneJ1_4_0" index="0" speed="13.89" length="10.28" shape="26.98,46.25 30.69,45.90 33.46,45.22 35.29,44.21 36.18,42.87"/>
    </edge>
    <edge id=":gneJ1_5" function="internal">
        <lane id=":gneJ1_5_0" index="0" speed="13.89" length="17.35" shape="26.98,46.25 32.29,46.05 35.95,46.21 39.53,46.95 44.60,48.53"/>
        <lane id=":gneJ1_5_1" index="1" speed="13.89" length="17.35" shape="27.13,49.54 32.08,49.36 35.50,49.50 38.85,50.20 43.58,51.66"/>
    </edge>
    <edge id=":gneJ1_7" function="internal">
        <lane id=":gneJ1_7_0" index="0" speed="13.89" length="12.57" shape="27.13,49.54 31.67,49.96 34.45,51.67 35.48,54.68 35.22,56.22"/>
    </edge>
    <edge id=":gneJ1_11" function="internal">
        <lane id=":gneJ1_11_0" index="0" speed="13.89" length="2.81" shape="35.22,56.22 34.75,59.00"/>
    </edge>
    <edge id=":gneJ1_8" function="internal">
        <lane id=":gneJ1_8_0" index="0" speed="13.89" length="16.13" shape="28.47,56.97 30.53,52.22 32.75,48.86 34.75,46.03 36.18,42.87"/>
    </edge>
    <edge id=":gneJ1_9" function="internal">
        <lane id=":gneJ1_9_0" index="0" speed="13.89" length="6.27" shape="31.61,57.98 33.48,54.12 34.96,52.80"/>
    </edge>
    <edge id=":gneJ1_12" function="internal">
        <lane id=":gneJ1_12_0" index="0" speed="13.89" length="9.17" shape="34.96,52.80 36.10,51.78 39.46,50.96 43.58,51.66"/>
    </edge>
    <edge id=":gneJ3_0" function="internal">
        <lane id=":gneJ3_0_0" index="0" speed="13.89" length="9.25" shape="160.70,97.12 157.78,96.29 155.40,96.20 153.58,96.86 152.31,98.26"/>
    </edge>
    <edge id=":gneJ3_1" function="internal">
        <lane id=":gneJ3_1_0" index="0" speed="13.89" length="13.72" shape="160.70,97.12 147.84,92.57"/>
        <lane id=":gneJ3_1_1" index="1" speed="13.89" length="13.72" shape="161.86,94.03 148.86,89.43"/>
    </edge>
    <edge id=":gneJ3_3" function="internal">
        <lane id=":gneJ3_3_0" index="0" speed="13.89" length="6.06" shape="161.86,94.03 158.23,92.02 157.04,90.52"/>
    </edge>
    <edge id=":gneJ3_14" function="internal">
        <lane id=":gneJ3_14_0" index="0" speed="13.89" length="9.42" shape="157.04,90.52 156.06,89.28 155.34,85.80 156.09,81.58"/>
    </edge>
    <edge id=":gneJ3_4" function="internal">
        <lane id=":gneJ3_4_0" index="0" speed="13.89" length="5.20" shape="162.37,83.61 162.10,85.06 162.31,86.26 163.01,87.18 164.18,87.85"/>
    </edge>
    <edge id=":gneJ3_5" function="internal">
        <lane id=":gneJ3_5_0" index="0" speed="13.89" length="17.17" shape="159.23,82.59 157.39,87.87 155.70,91.85 154.05,95.12 152.31,98.26"/>
    </edge>
    <edge id=":gneJ3_6" function="internal">
        <lane id=":gneJ3_6_0" index="0" speed="13.89" length="7.85" shape="159.23,82.59 157.47,86.49 155.15,88.93 154.95,89.00"/>
    </edge>
    <edge id=":gneJ3_15" function="internal">
        <lane id=":gneJ3_15_0" index="0" speed="13.89" length="6.27" shape="154.95,89.00 152.28,89.91 148.86,89.43"/>
    </edge>
    <edge id=":gneJ3_7" function="internal">
        <lane id=":gneJ3_7_0" index="0" speed="13.89" length="6.13" shape="150.91,83.16 152.82,83.58 154.32,83.45 155.41,82.79 156.09,81.58"/>
    </edge>
    <edge id=":gneJ3_8" function="internal">
        <lane id=":gneJ3_8_0" index="0" speed="13.89" length="14.01" shape="150.91,83.16 164.18,87.85"/>
        <lane id=":gneJ3_8_1" index="1" speed="13.89" length="14.01" shape="149.88,86.30 163.02,90.94"/>
    </edge>
    <edge id=":gneJ3_10" function="internal">
        <lane id=":gneJ3_10_0" index="0" speed="13.89" length="5.18" shape="149.88,86.30 152.93,87.99 153.75,89.47"/>
    </edge>
    <edge id=":gneJ3_16" function="internal">
        <lane id=":gneJ3_16_0" index="0" speed="13.89" length="9.34" shape="153.75,89.47 154.35,90.55 154.15,93.97 152.31,98.26"/>
    </edge>
    <edge id=":gneJ3_11" function="internal">
        <lane id=":gneJ3_11_0" index="0" speed="13.89" length="5.25" shape="149.43,96.65 149.96,95.27 149.88,94.12 149.17,93.23 147.84,92.57"/>
    </edge>
    <edge id=":gneJ3_12" function="internal">
        <lane id=":gneJ3_12_0" index="0" speed="13.89" length="16.50" shape="149.43,96.65 151.29,93.12 153.10,89.26 154.75,85.33 156.09,81.58"/>
    </edge>
    <edge id=":gneJ3_13" function="internal">
        <lane id=":gneJ3_13_0" index="0" speed="13.89" length="6.84" shape="149.43,96.65 152.16,92.94 154.00,91.68"/>
    </edge>
    <edge id=":gneJ3_17" function="internal">
        <lane id=":gneJ3_17_0" index="0" speed="13.89" length="9.46" shape="154.00,91.68 155.34,90.76 158.96,90.09 163.02,90.94"/>
    </edge>

    <edge id="gneE0" from="gneJ0" to="gneJ1" priority="1">
        <lane id="gneE0_0" index="0" speed="13.89" length="254.08" shape="-226.86,57.37 26.98,46.25"/>
        <lane id="gneE0_1" index="1" speed="13.89" length="254.08" shape="-226.71,60.67 27.13,49.54"/>
    </edge>
    <edge id="gneE10" from="gneJ11" to="gneJ3" priority="1">
        <lane id="gneE10_0" index="0" speed="13.89" length="272.98" shape="416.27,193.06 160.70,97.12"/>
        <lane id="gneE10_1" index="1" speed="13.89" length="272.98" shape="417.43,189.97 161.86,94.03"/>
    </edge>
    <edge id="gneE11" from="gneJ3" to="gneJ12" priority="1">
        <lane id="gneE11_0" index="0" speed="13.89" length="232.70" shape="156.09,81.58 227.46,-139.91"/>
    </edge>
    <edge id="gneE12" from="gneJ12" to="gneJ3" priority="1">
        <lane id="gneE12_0" index="0" speed="13.89" length="232.70" shape="233.74,-137.88 162.37,83.61"/>
        <lane id="gneE12_1" index="1" speed="13.89" length="232.70" shape="230.60,-138.89 159.23,82.59"/>
    </edge>
    <edge id="gneE15" from="gneJ15" to="gneJ3" priority="1">
        <lane id="gneE15_0" index="0" speed="13.89" length="98.92" shape="101.01,182.90 149.43,96.65"/>
    </edge>
    <edge id="gneE16" from="gneJ3" to="gneJ15" priority="1">
        <lane id="gneE16_0" index="0" speed="13.89" length="98.92" shape="152.31,98.26 103.89,184.52"/>
    </edge>
    <edge id="gneE2" from="gneJ2" to="gneJ1" priority="1">
        <lane id="gneE2_0" index="0" speed="13.89" length="211.23" shape="-36.46,257.97 28.47,56.97"/>
        <lane id="gneE2_1" index="1" speed="13.89" length="211.23" shape="-33.32,258.98 31.61,57.98"/>
    </edge>
    <edge id="gneE3" from="gneJ1" to="gneJ2" priority="1">
        <lane id="gneE3_0" index="0" speed="13.89" length="211.23" shape="34.75,59.00 -30.18,260.00"/>
    </edge>
    <edge id="gneE4" from="gneJ3" to="gneJ1" priority="1">
        <lane id="gneE4_0" index="0" speed="13.89" length="111.80" shape="147.84,92.57 41.53,57.94"/>
        <lane id="gneE4_1" index="1" speed="13.89" length="111.80" shape="148.86,89.43 42.56,54.80"/>
    </edge>
    <edge id="gneE5" from="gneJ1" to="gneJ3" priority="1">
        <lane id="gneE5_0" index="0" speed="13.89" length="111.80" shape="44.60,48.53 150.91,83.16"/>
        <lane id="gneE5_1" index="1" speed="13.89" length="111.80" shape="43.58,51.66 149.88,86.30"/>
    </edge>
    <edge id="gneE7" from="gneJ7" to="gneJ1" priority="1">
        <lane id="gneE7_0" index="0" speed="13.89" length="226.91" shape="104.06,-173.75 42.54,44.66"/>
        <lane id="gneE7_1" index="1" speed="13.89" length="226.91" shape="100.89,-174.64 39.36,43.77"/>
    </edge>
    <edge id="gneE8" from="gneJ1" to="gneJ7" priority="1">
        <lane id="gneE8_0" index="0" speed="13.89" length="226.91" shape="36.18,42.87 97.71,-175.54"/>
    </edge>
    <edge id="gneE9" from="gneJ3" to="gneJ11" priority="1">
        <lane id="gneE9_0" index="0" speed="13.89" length="272.98" shape="164.18,87.85 419.75,183.80"/>
        <lane id="gneE9_1" index="1" speed="13.89" length="272.98" shape="163.02,90.94 418.59,186.89"/>
    </edge>

    <tlLogic id="gneJ1" type="static" programID="0" offset="0">
        <phase duration="33" state="rrGGrrrrGg"/>
        <phase duration="3" state="rryyrrrryg"/>
        <phase duration="6" state="rrrrrrrrrG"/>
        <phase duration="3" state="rrrrrrrrry"/>
        <phase duration="33" state="GgrrGGGgrr"/>
        <phase duration="3" state="ygrryyygrr"/>
        <phase duration="6" state="rGrrrrrGrr"/>
        <phase duration="3" state="ryrrrrryrr"/>
    </tlLogic>
    <tlLogic id="gneJ3" type="static" programID="0" offset="0">
        <phase duration="33" state="GGGgrrrGGGgrrr"/>
        <phase duration="3" state="yyygrrryyygrrr"/>
        <phase duration="6" state="rrrGrrrrrrGrrr"/>
        <phase duration="3" state="rrryrrrrrryrrr"/>
        <phase duration="33" state="rrrrGGgrrrrGGg"/>
        <phase duration="3" state="rrrryygrrrryyg"/>
        <phase duration="6" state="rrrrrrGrrrrrrG"/>
        <phase duration="3" state="rrrrrryrrrrrry"/>
    </tlLogic>

    <junction id="gneJ0" type="dead_end" x="-226.64" y="62.32" incLanes="" intLanes="" shape="-226.64,62.27 -226.93,55.78"/>
    <junction id="gneJ1" type="traffic_light" x="35.66" y="50.82" incLanes="gneE4_0 gneE4_1 gneE7_0 gneE7_1 gneE0_0 gneE0_1 gneE2_0 gneE2_1" intLanes=":gneJ1_0_0 :gneJ1_10_0 :gneJ1_2_0 :gneJ1_3_0 :gneJ1_4_0 :gneJ1_5_0 :gneJ1_5_1 :gneJ1_11_0 :gneJ1_8_0 :gneJ1_12_0" shape="41.04,59.46 45.10,47.01 44.08,45.10 34.64,42.44 26.91,44.65 27.20,51.14 26.95,56.47 36.28,59.49">
        <request index="0" response="0000001000" foes="0010001000" cont="0"/>
        <request index="1" response="1101111000" foes="1101111000" cont="1"/>
        <request index="2" response="0000000000" foes="1001100000" cont="0"/>
        <request index="3" response="0000000000" foes="1011100011" cont="0"/>
        <request index="4" response="0100000000" foes="0100000010" cont="0"/>
        <request index="5" response="1100001100" foes="1100001110" cont="0"/>
        <request index="6" response="1100001100" foes="1100001110" cont="0"/>
        <request index="7" response="1100001001" foes="1100001001" cont="1"/>
        <request index="8" response="0000000000" foes="0011110010" cont="0"/>
        <request index="9" response="0000001100" foes="0011101110" cont="1"/>
    </junction>
    <junction id="gneJ11" type="dead_end" x="418.01" y="188.43" incLanes="gneE9_0 gneE9_1" intLanes="" shape="417.99,188.48 420.31,182.30 418.03,188.38"/>
    <junction id="gneJ12" type="dead_end" x="229.03" y="-139.40" incLanes="gneE11_0" intLanes="" shape="229.08,-139.38 225.94,-140.40 228.98,-139.42"/>
    <junction id="gneJ15" type="dead_end" x="102.45" y="183.71" incLanes="gneE16_0" intLanes="" shape="102.41,183.69 105.28,185.30 102.49,183.73"/>
    <junction id="gneJ2" type="dead_end" x="-31.75" y="259.49" incLanes="gneE3_0" intLanes="" shape="-31.80,259.47 -28.66,260.49 -31.70,259.51"/>
    <junction id="gneJ3" type="traffic_light" x="155.19" y="89.76" incLanes="gneE10_0 gneE10_1 gneE12_0 gneE12_1 gneE5_0 gneE5_1 gneE15_0" intLanes=":gneJ3_0_0 :gneJ3_1_0 :gneJ3_1_1 :gneJ3_14_0 :gneJ3_4_0 :gneJ3_5_0 :gneJ3_15_0 :gneJ3_7_0 :gneJ3_8_0 :gneJ3_8_1 :gneJ3_16_0 :gneJ3_11_0 :gneJ3_12_0 :gneJ3_17_0" shape="160.14,98.61 164.74,86.35 163.90,84.10 154.57,81.09 151.40,81.64 147.34,94.09 148.04,95.87 153.70,99.05">
        <request index="0" response="00000000000000" foes="00010000100000" cont="0"/>
        <request index="1" response="00000000000000" foes="11110001100000" cont="0"/>
        <request index="2" response="00000000000000" foes="11110001100000" cont="0"/>
        <request index="3" response="00001110000000" foes="11001111100000" cont="1"/>
        <request index="4" response="00001100000000" foes="10001100000000" cont="0"/>
        <request index="5" response="00011100001111" foes="10011100001111" cont="0"/>
        <request index="6" response="01111100001110" foes="01111100001110" cont="1"/>
        <request index="7" response="00000000000000" foes="01000000001000" cont="0"/>
        <request index="8" response="00000000000000" foes="11000001111000" cont="0"/>
        <request index="9" response="00000000000000" foes="11000001111000" cont="0"/>
        <request index="10" response="00000000000111" foes="11000001100111" cont="1"/>
        <request index="11" response="00000000000110" foes="00000001000110" cont="0"/>
        <request index="12" response="00011110001110" foes="00011111001110" cont="0"/>
        <request index="13" response="00011100111110" foes="00011100111110" cont="1"/>
    </junction>
    <junction id="gneJ7" type="dead_end" x="99.30" y="-175.09" incLanes="gneE8_0" intLanes="" shape="99.35,-175.08 96.17,-175.97 99.25,-175.10"/>

    <junction id=":gneJ1_10_0" type="internal" x="37.57" y="51.57" incLanes=":gneJ1_1_0 gneE0_0 gneE0_1" intLanes=":gneJ1_3_0 :gneJ1_4_0 :gneJ1_5_0 :gneJ1_5_1 :gneJ1_8_0 :gneJ1_9_0"/>
    <junction id=":gneJ1_11_0" type="internal" x="35.22" y="56.22" incLanes=":gneJ1_7_0 gneE4_0" intLanes=":gneJ1_0_0 :gneJ1_3_0 :gneJ1_8_0 :gneJ1_9_0"/>
    <junction id=":gneJ1_12_0" type="internal" x="34.96" y="52.80" incLanes=":gneJ1_9_0 gneE7_0 gneE7_1" intLanes=":gneJ1_1_0 :gneJ1_2_0 :gneJ1_3_0 :gneJ1_5_0 :gneJ1_5_1 :gneJ1_7_0"/>
    <junction id=":gneJ3_14_0" type="internal" x="157.04" y="90.52" incLanes=":gneJ3_3_0 gneE5_0 gneE5_1" intLanes=":gneJ3_5_0 :gneJ3_6_0 :gneJ3_7_0 :gneJ3_8_0 :gneJ3_8_1 :gneJ3_12_0 :gneJ3_13_0"/>
    <junction id=":gneJ3_15_0" type="internal" x="154.95" y="89.00" incLanes=":gneJ3_6_0 gneE15_0" intLanes=":gneJ3_1_0 :gneJ3_1_1 :gneJ3_3_0 :gneJ3_8_0 :gneJ3_8_1 :gneJ3_10_0 :gneJ3_11_0 :gneJ3_12_0"/>
    <junction id=":gneJ3_16_0" type="internal" x="153.75" y="89.47" incLanes=":gneJ3_10_0 gneE10_0 gneE10_1" intLanes=":gneJ3_0_0 :gneJ3_1_0 :gneJ3_1_1 :gneJ3_5_0 :gneJ3_6_0 :gneJ3_12_0 :gneJ3_13_0"/>
    <junction id=":gneJ3_17_0" type="internal" x="154.00" y="91.68" incLanes=":gneJ3_13_0 gneE12_0 gneE12_1" intLanes=":gneJ3_1_0 :gneJ3_1_1 :gneJ3_3_0 :gneJ3_4_0 :gneJ3_5_0 :gneJ3_8_0 :gneJ3_8_1 :gneJ3_10_0"/>

    <connection from="gneE0" to="gneE8" fromLane="0" toLane="0" via=":gneJ1_4_0" tl="gneJ1" linkIndex="4" dir="r" state="o"/>
    <connection from="gneE0" to="gneE5" fromLane="0" toLane="0" via=":gneJ1_5_0" tl="gneJ1" linkIndex="5" dir="s" state="o"/>
    <connection from="gneE0" to="gneE5" fromLane="1" toLane="1" via=":gneJ1_5_1" tl="gneJ1" linkIndex="6" dir="s" state="o"/>
    <connection from="gneE0" to="gneE3" fromLane="1" toLane="0" via=":gneJ1_7_0" tl="gneJ1" linkIndex="7" dir="l" state="o"/>
    <connection from="gneE10" to="gneE16" fromLane="0" toLane="0" via=":gneJ3_0_0" tl="gneJ3" linkIndex="0" dir="r" state="o"/>
    <connection from="gneE10" to="gneE4" fromLane="0" toLane="0" via=":gneJ3_1_0" tl="gneJ3" linkIndex="1" dir="s" state="o"/>
    <connection from="gneE10" to="gneE4" fromLane="1" toLane="1" via=":gneJ3_1_1" tl="gneJ3" linkIndex="2" dir="s" state="o"/>
    <connection from="gneE10" to="gneE11" fromLane="1" toLane="0" via=":gneJ3_3_0" tl="gneJ3" linkIndex="3" dir="l" state="o"/>
    <connection from="gneE12" to="gneE9" fromLane="0" toLane="0" via=":gneJ3_4_0" tl="gneJ3" linkIndex="4" dir="r" state="o"/>
    <connection from="gneE12" to="gneE16" fromLane="1" toLane="0" via=":gneJ3_5_0" tl="gneJ3" linkIndex="5" dir="s" state="o"/>
    <connection from="gneE12" to="gneE4" fromLane="1" toLane="1" via=":gneJ3_6_0" tl="gneJ3" linkIndex="6" dir="l" state="o"/>
    <connection from="gneE15" to="gneE4" fromLane="0" toLane="0" via=":gneJ3_11_0" tl="gneJ3" linkIndex="11" dir="r" state="o"/>
    <connection from="gneE15" to="gneE11" fromLane="0" toLane="0" via=":gneJ3_12_0" tl="gneJ3" linkIndex="12" dir="s" state="o"/>
    <connection from="gneE15" to="gneE9" fromLane="0" toLane="1" via=":gneJ3_13_0" tl="gneJ3" linkIndex="13" dir="l" state="o"/>
    <connection from="gneE2" to="gneE8" fromLane="0" toLane="0" via=":gneJ1_8_0" tl="gneJ1" linkIndex="8" dir="s" state="o"/>
    <connection from="gneE2" to="gneE5" fromLane="1" toLane="1" via=":gneJ1_9_0" tl="gneJ1" linkIndex="9" dir="l" state="o"/>
    <connection from="gneE4" to="gneE3" fromLane="0" toLane="0" via=":gneJ1_0_0" tl="gneJ1" linkIndex="0" dir="r" state="o"/>
    <connection from="gneE4" to="gneE8" fromLane="1" toLane="0" via=":gneJ1_1_0" tl="gneJ1" linkIndex="1" dir="l" state="o"/>
    <connection from="gneE5" to="gneE11" fromLane="0" toLane="0" via=":gneJ3_7_0" tl="gneJ3" linkIndex="7" dir="r" state="o"/>
    <connection from="gneE5" to="gneE9" fromLane="0" toLane="0" via=":gneJ3_8_0" tl="gneJ3" linkIndex="8" dir="s" state="o"/>
    <connection from="gneE5" to="gneE9" fromLane="1" toLane="1" via=":gneJ3_8_1" tl="gneJ3" linkIndex="9" dir="s" state="o"/>
    <connection from="gneE5" to="gneE16" fromLane="1" toLane="0" via=":gneJ3_10_0" tl="gneJ3" linkIndex="10" dir="l" state="o"/>
    <connection from="gneE7" to="gneE5" fromLane="0" toLane="0" via=":gneJ1_2_0" tl="gneJ1" linkIndex="2" dir="r" state="o"/>
    <connection from="gneE7" to="gneE3" fromLane="1" toLane="0" via=":gneJ1_3_0" tl="gneJ1" linkIndex="3" dir="s" state="o"/>

    <connection from=":gneJ1_0" to="gneE3" fromLane="0" toLane="0" dir="s" state="M"/>
    <connection from=":gneJ1_1" to="gneE8" fromLane="0" toLane="0" via=":gneJ1_10_0" dir="s" state="m"/>
    <connection from=":gneJ1_10" to="gneE8" fromLane="0" toLane="0" dir="s" state="M"/>
    <connection from=":gneJ1_2" to="gneE5" fromLane="0" toLane="0" dir="s" state="M"/>
    <connection from=":gneJ1_3" to="gneE3" fromLane="0" toLane="0" dir="s" state="M"/>
    <connection from=":gneJ1_4" to="gneE8" fromLane="0" toLane="0" dir="s" state="M"/>
    <connection from=":gneJ1_5" to="gneE5" fromLane="0" toLane="0" dir="s" state="M"/>
    <connection from=":gneJ1_5" to="gneE5" fromLane="1" toLane="1" dir="s" state="M"/>
    <connection from=":gneJ1_7" to="gneE3" fromLane="0" toLane="0" via=":gneJ1_11_0" dir="s" state="m"/>
    <connection from=":gneJ1_11" to="gneE3" fromLane="0" toLane="0" dir="s" state="M"/>
    <connection from=":gneJ1_8" to="gneE8" fromLane="0" toLane="0" dir="s" state="M"/>
    <connection from=":gneJ1_9" to="gneE5" fromLane="0" toLane="1" via=":gneJ1_12_0" dir="s" state="m"/>
    <connection from=":gneJ1_12" to="gneE5" fromLane="0" toLane="1" dir="s" state="M"/>
    <connection from=":gneJ3_0" to="gneE16" fromLane="0" toLane="0" dir="s" state="M"/>
    <connection from=":gneJ3_1" to="gneE4" fromLane="0" toLane="0" dir="s" state="M"/>
    <connection from=":gneJ3_1" to="gneE4" fromLane="1" toLane="1" dir="s" state="M"/>
    <connection from=":gneJ3_3" to="gneE11" fromLane="0" toLane="0" via=":gneJ3_14_0" dir="s" state="m"/>
    <connection from=":gneJ3_14" to="gneE11" fromLane="0" toLane="0" dir="s" state="M"/>
    <connection from=":gneJ3_4" to="gneE9" fromLane="0" toLane="0" dir="s" state="M"/>
    <connection from=":gneJ3_5" to="gneE16" fromLane="0" toLane="0" dir="s" state="M"/>
    <connection from=":gneJ3_6" to="gneE4" fromLane="0" toLane="1" via=":gneJ3_15_0" dir="s" state="m"/>
    <connection from=":gneJ3_15" to="gneE4" fromLane="0" toLane="1" dir="s" state="M"/>
    <connection from=":gneJ3_7" to="gneE11" fromLane="0" toLane="0" dir="s" state="M"/>
    <connection from=":gneJ3_8" to="gneE9" fromLane="0" toLane="0" dir="s" state="M"/>
    <connection from=":gneJ3_8" to="gneE9" fromLane="1" toLane="1" dir="s" state="M"/>
    <connection from=":gneJ3_10" to="gneE16" fromLane="0" toLane="0" via=":gneJ3_16_0" dir="s" state="m"/>
    <connection from=":gneJ3_16" to="gneE16" fromLane="0" toLane="0" dir="s" state="M"/>
    <connection from=":gneJ3_11" to="gneE4" fromLane="0" toLane="0" dir="s" state="M"/>
    <connection from=":gneJ3_12" to="gneE11" fromLane="0" toLane="0" dir="s" state="M"/>
    <connection from=":gneJ3_13" to="gneE9" fromLane="0" toLane="1" via=":gneJ3_17_0" dir="s" state="m"/>
    <connection from=":gneJ3_17" to="gneE9" fromLane="0" toLane="1" dir="s" state="M"/>

</net>
