<?xml version="1.0" encoding="UTF-8"?>

<!-- generated on 01-Dec-17 16:08:15 by Netedit Version 0.31.0
<?xml version="1.0" encoding="UTF-8"?>

<configuration xmlns:xsi="http://www.w3.org/2001/XMLSchema-instance" xsi:noNamespaceSchemaLocation="http://sumo.dlr.de/xsd/netconvertConfiguration.xsd">

    <input>
        <sumo-net-file value="C:\Users\juraj.sojcak\Documents\NetBeansProjects\sumo_jade\src\sumo_jade\simulation\example.net.xml"/>
    </input>

    <output>
        <output-file value="C:\Users\juraj.sojcak\Documents\NetBeansProjects\sumo_jade\src\sumo_jade\simulation\example.net.xml"/>
    </output>

    <processing>
        <no-turnarounds value="true"/>
        <offset.disable-normalization value="true"/>
        <lefthand value="false"/>
        <junctions.corner-detail value="0"/>
        <rectangular-lane-cut value="false"/>
        <walkingareas value="false"/>
    </processing>

    <visualisation>
        <registry-viewport value="true"/>
    </visualisation>

</configuration>
-->

<net version="0.27" xmlns:xsi="http://www.w3.org/2001/XMLSchema-instance" xsi:noNamespaceSchemaLocation="http://sumo.dlr.de/xsd/net_file.xsd">

    <location netOffset="0.00,0.00" convBoundary="-50.79,-24.38,251.73,173.00" origBoundary="-10000000000.00,-10000000000.00,10000000000.00,10000000000.00" projParameter="!"/>

    <edge id=":gneJ1_0" function="internal">
        <lane id=":gneJ1_0_0" index="0" speed="13.89" length="5.99" shape="64.90,64.42 63.17,63.66 61.77,63.56 60.68,64.13 59.91,65.36"/>
    </edge>
    <edge id=":gneJ1_1" function="internal">
        <lane id=":gneJ1_1_0" index="0" speed="13.89" length="5.61" shape="66.57,61.58 63.65,59.25 62.70,57.62"/>
    </edge>
    <edge id=":gneJ1_10" function="internal">
        <lane id=":gneJ1_10_0" index="0" speed="13.89" length="8.82" shape="62.70,57.62 61.98,56.39 61.53,53.01 62.32,49.11"/>
    </edge>
    <edge id=":gneJ1_2" function="internal">
        <lane id=":gneJ1_2_0" index="0" speed="13.89" length="5.30" shape="68.57,51.22 68.25,52.73 68.36,54.01 68.91,55.06 69.90,55.88"/>
    </edge>
    <edge id=":gneJ1_3" function="internal">
        <lane id=":gneJ1_3_0" index="0" speed="13.89" length="16.18" shape="65.45,50.16 59.91,65.36"/>
    </edge>
    <edge id=":gneJ1_4" function="internal">
        <lane id=":gneJ1_4_0" index="0" speed="13.89" length="9.33" shape="53.68,51.02 57.13,51.17 59.72,50.90 61.45,50.21 62.32,49.11"/>
    </edge>
    <edge id=":gneJ1_5" function="internal">
        <lane id=":gneJ1_5_0" index="0" speed="13.89" length="16.45" shape="53.68,51.02 58.74,51.50 62.21,52.13 65.47,53.42 69.90,55.88"/>
        <lane id=":gneJ1_5_1" index="1" speed="13.89" length="16.45" shape="53.38,54.31 58.02,54.74 61.19,55.31 64.18,56.48 68.23,58.73"/>
    </edge>
    <edge id=":gneJ1_7" function="internal">
        <lane id=":gneJ1_7_0" index="0" speed="13.89" length="12.72" shape="53.38,54.31 57.71,55.36 60.24,57.55 60.97,60.88 60.62,62.35"/>
    </edge>
    <edge id=":gneJ1_11" function="internal">
        <lane id=":gneJ1_11_0" index="0" speed="13.89" length="3.10" shape="60.62,62.35 59.91,65.36"/>
    </edge>
    <edge id=":gneJ1_8" function="internal">
        <lane id=":gneJ1_8_0" index="0" speed="13.89" length="16.37" shape="53.75,62.98 56.11,58.27 58.54,54.97 60.72,52.21 62.32,49.11"/>
    </edge>
    <edge id=":gneJ1_9" function="internal">
        <lane id=":gneJ1_9_0" index="0" speed="13.89" length="6.76" shape="56.83,64.17 58.98,60.13 60.63,58.71"/>
    </edge>
    <edge id=":gneJ1_12" function="internal">
        <lane id=":gneJ1_12_0" index="0" speed="13.89" length="8.18" shape="60.63,58.71 61.60,57.87 64.68,57.41 68.23,58.73"/>
    </edge>
    <edge id=":gneJ3_0" function="internal">
        <lane id=":gneJ3_0_0" index="0" speed="13.89" length="8.24" shape="148.38,114.85 146.07,113.18 144.10,112.39 142.46,112.47 141.16,113.44"/>
    </edge>
    <edge id=":gneJ3_1" function="internal">
        <lane id=":gneJ3_1_0" index="0" speed="13.89" length="13.47" shape="148.38,114.85 145.41,112.30 143.34,110.60 141.14,109.08 137.80,107.06"/>
        <lane id=":gneJ3_1_1" index="1" speed="13.89" length="13.47" shape="150.53,112.35 147.43,109.68 145.26,107.91 142.96,106.32 139.46,104.21"/>
    </edge>
    <edge id=":gneJ3_3" function="internal">
        <lane id=":gneJ3_3_0" index="0" speed="13.89" length="6.38" shape="150.53,112.35 147.61,109.04 147.01,107.16"/>
    </edge>
    <edge id=":gneJ3_14" function="internal">
        <lane id=":gneJ3_14_0" index="0" speed="13.89" length="9.64" shape="147.01,107.16 146.52,105.62 147.25,102.10 149.80,98.48"/>
    </edge>
    <edge id=":gneJ3_4" function="internal">
        <lane id=":gneJ3_4_0" index="0" speed="13.89" length="5.06" shape="154.56,102.97 153.77,104.11 153.54,105.23 153.89,106.31 154.81,107.35"/>
    </edge>
    <edge id=":gneJ3_5" function="internal">
        <lane id=":gneJ3_5_0" index="0" speed="13.89" length="16.83" shape="152.16,100.71 141.16,113.44"/>
    </edge>
    <edge id=":gneJ3_6" function="internal">
        <lane id=":gneJ3_6_0" index="0" speed="13.89" length="7.05" shape="152.16,100.71 148.90,103.58 146.46,104.76"/>
    </edge>
    <edge id=":gneJ3_15" function="internal">
        <lane id=":gneJ3_15_0" index="0" speed="13.89" length="7.29" shape="146.46,104.76 145.69,105.13 142.55,105.34 139.46,104.21"/>
    </edge>
    <edge id=":gneJ3_7" function="internal">
        <lane id=":gneJ3_7_0" index="0" speed="13.89" length="7.61" shape="142.79,98.52 144.92,99.50 146.79,99.82 148.42,99.48 149.80,98.48"/>
    </edge>
    <edge id=":gneJ3_8" function="internal">
        <lane id=":gneJ3_8_0" index="0" speed="13.89" length="14.65" shape="142.79,98.52 146.59,100.80 149.09,102.53 151.45,104.46 154.81,107.35"/>
        <lane id=":gneJ3_8_1" index="1" speed="13.89" length="14.65" shape="141.13,101.37 144.77,103.56 147.17,105.22 149.43,107.07 152.66,109.86"/>
    </edge>
    <edge id=":gneJ3_10" function="internal">
        <lane id=":gneJ3_10_0" index="0" speed="13.89" length="4.99" shape="141.13,101.37 143.62,103.57 144.10,105.17"/>
    </edge>
    <edge id=":gneJ3_16" function="internal">
        <lane id=":gneJ3_16_0" index="0" speed="13.89" length="9.16" shape="144.10,105.17 144.45,106.32 143.63,109.61 141.16,113.44"/>
    </edge>
    <edge id=":gneJ3_11" function="internal">
        <lane id=":gneJ3_11_0" index="0" speed="13.89" length="5.19" shape="138.59,111.37 139.33,110.12 139.44,108.99 138.93,107.97 137.80,107.06"/>
    </edge>
    <edge id=":gneJ3_12" function="internal">
        <lane id=":gneJ3_12_0" index="0" speed="13.89" length="17.08" shape="138.59,111.37 149.80,98.48"/>
    </edge>
    <edge id=":gneJ3_13" function="internal">
        <lane id=":gneJ3_13_0" index="0" speed="13.89" length="7.10" shape="138.59,111.37 141.89,108.27 144.29,107.37"/>
    </edge>
    <edge id=":gneJ3_17" function="internal">
        <lane id=":gneJ3_17_0" index="0" speed="13.89" length="9.16" shape="144.29,107.37 145.34,106.98 148.93,107.51 152.66,109.86"/>
    </edge>

    <edge id="gneE0" from="gneJ0" to="gneJ1" priority="1" shape="-50.79,81.11 -18.68,78.63 3.22,71.60 31.07,57.27 46.75,55.37 61.50,56.70">
        <lane id="gneE0_0" index="0" speed="13.89" length="109.39" shape="-51.17,76.17 -19.64,73.74 1.32,67.01 29.59,52.46 46.67,50.39 53.68,51.02"/>
        <lane id="gneE0_1" index="1" speed="13.89" length="109.39" shape="-50.92,79.46 -19.00,77.00 2.59,70.07 30.58,55.67 46.72,53.71 53.38,54.31"/>
    </edge>
    <edge id="gneE10" from="gneJ11" to="gneJ3" priority="1" shape="229.13,173.00 190.60,144.33 145.27,105.70">
        <lane id="gneE10_0" index="0" speed="13.89" length="99.50" shape="226.18,176.97 187.51,148.20 148.38,114.85"/>
        <lane id="gneE10_1" index="1" speed="13.89" length="99.50" shape="228.15,174.32 189.57,145.62 150.53,112.35"/>
    </edge>
    <edge id="gneE11" from="gneJ3" to="gneJ12" priority="1" shape="145.27,105.70 166.02,83.66 179.41,74.14 197.62,72.45 251.73,96.66">
        <lane id="gneE11_0" index="0" speed="13.89" length="117.99" shape="149.80,98.48 164.93,82.41 178.82,72.54 197.90,70.77 252.40,95.15"/>
    </edge>
    <edge id="gneE12" from="gneJ12" to="gneJ3" priority="1" shape="251.73,96.66 197.84,72.45 179.70,73.84 166.02,83.36 145.27,105.70">
        <lane id="gneE12_0" index="0" speed="13.89" length="111.90" shape="249.70,101.18 196.96,77.48 181.42,78.67 169.28,87.12 154.56,102.97"/>
        <lane id="gneE12_1" index="1" speed="13.89" length="111.90" shape="251.05,98.17 197.55,74.13 180.27,75.45 167.11,84.61 152.16,100.71"/>
    </edge>
    <edge id="gneE15" from="gneJ15" to="gneJ3" priority="1">
        <lane id="gneE15_0" index="0" speed="13.89" length="48.47" shape="108.20,149.14 138.59,111.37"/>
    </edge>
    <edge id="gneE16" from="gneJ3" to="gneJ15" priority="1">
        <lane id="gneE16_0" index="0" speed="13.89" length="48.47" shape="141.16,113.44 110.78,151.20"/>
    </edge>
    <edge id="gneE2" from="gneJ2" to="gneJ1" priority="1">
        <lane id="gneE2_0" index="0" speed="13.89" length="107.47" shape="14.86,163.16 53.75,62.98"/>
        <lane id="gneE2_1" index="1" speed="13.89" length="107.47" shape="17.93,164.35 56.83,64.17"/>
    </edge>
    <edge id="gneE3" from="gneJ1" to="gneJ2" priority="1">
        <lane id="gneE3_0" index="0" speed="13.89" length="107.47" shape="59.91,65.36 21.01,165.55"/>
    </edge>
    <edge id="gneE4" from="gneJ3" to="gneJ1" priority="1">
        <lane id="gneE4_0" index="0" speed="13.89" length="84.45" shape="137.80,107.06 64.90,64.42"/>
        <lane id="gneE4_1" index="1" speed="13.89" length="84.45" shape="139.46,104.21 66.57,61.58"/>
    </edge>
    <edge id="gneE5" from="gneJ1" to="gneJ3" priority="1">
        <lane id="gneE5_0" index="0" speed="13.89" length="84.45" shape="69.90,55.88 142.79,98.52"/>
        <lane id="gneE5_1" index="1" speed="13.89" length="84.45" shape="68.23,58.73 141.13,101.37"/>
    </edge>
    <edge id="gneE7" from="gneJ7" to="gneJ1" priority="1">
        <lane id="gneE7_0" index="0" speed="13.89" length="78.12" shape="93.56,-22.80 68.57,51.22"/>
        <lane id="gneE7_1" index="1" speed="13.89" length="78.12" shape="90.43,-23.85 65.45,50.16"/>
    </edge>
    <edge id="gneE8" from="gneJ1" to="gneJ7" priority="1">
        <lane id="gneE8_0" index="0" speed="13.89" length="78.12" shape="62.32,49.11 87.31,-24.91"/>
    </edge>
    <edge id="gneE9" from="gneJ3" to="gneJ11" priority="1" shape="145.27,105.70 190.33,144.33 229.13,173.00">
        <lane id="gneE9_0" index="0" speed="13.89" length="99.04" shape="154.81,107.35 193.42,140.46 232.07,169.02"/>
        <lane id="gneE9_1" index="1" speed="13.89" length="99.04" shape="152.66,109.86 191.36,143.04 230.11,171.67"/>
    </edge>

    <tlLogic id="gneJ1" type="static" programID="0" offset="0">
        <phase duration="33" state="rrGGrrrrGg"/>
        <phase duration="3" state="rryyrrrryg"/>
        <phase duration="6" state="rrrrrrrrrG"/>
        <phase duration="3" state="rrrrrrrrry"/>
        <phase duration="33" state="GgrrGGGgrr"/>
        <phase duration="3" state="ygrryyygrr"/>
        <phase duration="6" state="rGrrrrrGrr"/>
        <phase duration="3" state="ryrrrrryrr"/>
    </tlLogic>
    <tlLogic id="gneJ3" type="static" programID="0" offset="0">
        <phase duration="33" state="GGGgrrrGGGgrrr"/>
        <phase duration="3" state="yyygrrryyygrrr"/>
        <phase duration="6" state="rrrGrrrrrrGrrr"/>
        <phase duration="3" state="rrryrrrrrryrrr"/>
        <phase duration="33" state="rrrrGGgrrrrGGg"/>
        <phase duration="3" state="rrrryygrrrryyg"/>
        <phase duration="6" state="rrrrrrGrrrrrrG"/>
        <phase duration="3" state="rrrrrryrrrrrry"/>
    </tlLogic>

    <junction id="gneJ0" type="dead_end" x="-50.79" y="81.11" incLanes="" intLanes="" shape="-50.79,81.06 -51.29,74.58"/>
    <junction id="gneJ1" type="traffic_light" x="61.50" y="56.70" incLanes="gneE4_0 gneE4_1 gneE7_0 gneE7_1 gneE0_0 gneE0_1 gneE2_0 gneE2_1" intLanes=":gneJ1_0_0 :gneJ1_10_0 :gneJ1_2_0 :gneJ1_3_0 :gneJ1_4_0 :gneJ1_5_0 :gneJ1_5_1 :gneJ1_11_0 :gneJ1_8_0 :gneJ1_12_0" shape="64.09,65.80 70.71,54.50 70.09,51.73 60.81,48.60 53.82,49.43 53.24,55.90 52.26,62.40 61.40,65.94">
        <request index="0" response="0000001000" foes="0010001000" cont="0"/>
        <request index="1" response="1101111000" foes="1101111000" cont="1"/>
        <request index="2" response="0000000000" foes="1001100000" cont="0"/>
        <request index="3" response="0000000000" foes="1011100011" cont="0"/>
        <request index="4" response="0100000000" foes="0100000010" cont="0"/>
        <request index="5" response="1100001100" foes="1100001110" cont="0"/>
        <request index="6" response="1100001100" foes="1100001110" cont="0"/>
        <request index="7" response="1100001001" foes="1100001001" cont="1"/>
        <request index="8" response="0000000000" foes="0011110010" cont="0"/>
        <request index="9" response="0000001100" foes="0011101110" cont="1"/>
    </junction>
    <junction id="gneJ11" type="dead_end" x="229.13" y="173.00" incLanes="gneE9_0 gneE9_1" intLanes="" shape="229.10,173.04 225.22,178.25 233.02,167.73"/>
    <junction id="gneJ12" type="dead_end" x="251.73" y="96.66" incLanes="gneE11_0" intLanes="" shape="251.71,96.71 249.05,102.63 253.06,93.69"/>
    <junction id="gneJ15" type="dead_end" x="109.49" y="150.17" incLanes="gneE16_0" intLanes="" shape="109.45,150.14 112.02,152.21 109.53,150.20"/>
    <junction id="gneJ2" type="dead_end" x="19.47" y="164.95" incLanes="gneE3_0" intLanes="" shape="19.42,164.93 22.50,166.13 19.52,164.97"/>
    <junction id="gneJ3" type="traffic_light" x="145.27" y="105.70" incLanes="gneE10_0 gneE10_1 gneE12_0 gneE12_1 gneE5_0 gneE5_1 gneE15_0" intLanes=":gneJ3_0_0 :gneJ3_1_0 :gneJ3_1_1 :gneJ3_14_0 :gneJ3_4_0 :gneJ3_5_0 :gneJ3_15_0 :gneJ3_7_0 :gneJ3_8_0 :gneJ3_8_1 :gneJ3_16_0 :gneJ3_11_0 :gneJ3_12_0 :gneJ3_17_0" shape="147.34,116.07 155.85,106.14 155.73,104.06 148.63,97.39 143.60,97.14 136.99,108.44 137.34,110.37 142.41,114.44">
        <request index="0" response="00000000000000" foes="00010000100000" cont="0"/>
        <request index="1" response="00000000000000" foes="11110001100000" cont="0"/>
        <request index="2" response="00000000000000" foes="11110001100000" cont="0"/>
        <request index="3" response="00001110000000" foes="11001111100000" cont="1"/>
        <request index="4" response="00001100000000" foes="10001100000000" cont="0"/>
        <request index="5" response="00011100001111" foes="10011100001111" cont="0"/>
        <request index="6" response="01111100001110" foes="01111100001110" cont="1"/>
        <request index="7" response="00000000000000" foes="01000000001000" cont="0"/>
        <request index="8" response="00000000000000" foes="11000001111000" cont="0"/>
        <request index="9" response="00000000000000" foes="11000001111000" cont="0"/>
        <request index="10" response="00000000000111" foes="11000001100111" cont="1"/>
        <request index="11" response="00000000000110" foes="00000001000110" cont="0"/>
        <request index="12" response="00011110001110" foes="00011111001110" cont="0"/>
        <request index="13" response="00011100111110" foes="00011100111110" cont="1"/>
    </junction>
    <junction id="gneJ7" type="dead_end" x="88.87" y="-24.38" incLanes="gneE8_0" intLanes="" shape="88.92,-24.36 85.79,-25.42 88.82,-24.40"/>

    <junction id=":gneJ1_10_0" type="internal" x="62.70" y="57.62" incLanes=":gneJ1_1_0 gneE0_0 gneE0_1" intLanes=":gneJ1_3_0 :gneJ1_4_0 :gneJ1_5_0 :gneJ1_5_1 :gneJ1_8_0 :gneJ1_9_0"/>
    <junction id=":gneJ1_11_0" type="internal" x="60.62" y="62.35" incLanes=":gneJ1_7_0 gneE4_0" intLanes=":gneJ1_0_0 :gneJ1_3_0 :gneJ1_8_0 :gneJ1_9_0"/>
    <junction id=":gneJ1_12_0" type="internal" x="60.63" y="58.71" incLanes=":gneJ1_9_0 gneE7_0 gneE7_1" intLanes=":gneJ1_1_0 :gneJ1_2_0 :gneJ1_3_0 :gneJ1_5_0 :gneJ1_5_1 :gneJ1_7_0"/>
    <junction id=":gneJ3_14_0" type="internal" x="147.01" y="107.16" incLanes=":gneJ3_3_0 gneE5_0 gneE5_1" intLanes=":gneJ3_5_0 :gneJ3_6_0 :gneJ3_7_0 :gneJ3_8_0 :gneJ3_8_1 :gneJ3_12_0 :gneJ3_13_0"/>
    <junction id=":gneJ3_15_0" type="internal" x="146.46" y="104.76" incLanes=":gneJ3_6_0 gneE15_0" intLanes=":gneJ3_1_0 :gneJ3_1_1 :gneJ3_3_0 :gneJ3_8_0 :gneJ3_8_1 :gneJ3_10_0 :gneJ3_11_0 :gneJ3_12_0"/>
    <junction id=":gneJ3_16_0" type="internal" x="144.10" y="105.17" incLanes=":gneJ3_10_0 gneE10_0 gneE10_1" intLanes=":gneJ3_0_0 :gneJ3_1_0 :gneJ3_1_1 :gneJ3_5_0 :gneJ3_6_0 :gneJ3_12_0 :gneJ3_13_0"/>
    <junction id=":gneJ3_17_0" type="internal" x="144.29" y="107.37" incLanes=":gneJ3_13_0 gneE12_0 gneE12_1" intLanes=":gneJ3_1_0 :gneJ3_1_1 :gneJ3_3_0 :gneJ3_4_0 :gneJ3_5_0 :gneJ3_8_0 :gneJ3_8_1 :gneJ3_10_0"/>

    <connection from="gneE0" to="gneE8" fromLane="0" toLane="0" via=":gneJ1_4_0" tl="gneJ1" linkIndex="4" dir="r" state="o"/>
    <connection from="gneE0" to="gneE5" fromLane="0" toLane="0" via=":gneJ1_5_0" tl="gneJ1" linkIndex="5" dir="s" state="o"/>
    <connection from="gneE0" to="gneE5" fromLane="1" toLane="1" via=":gneJ1_5_1" tl="gneJ1" linkIndex="6" dir="s" state="o"/>
    <connection from="gneE0" to="gneE3" fromLane="1" toLane="0" via=":gneJ1_7_0" tl="gneJ1" linkIndex="7" dir="l" state="o"/>
    <connection from="gneE10" to="gneE16" fromLane="0" toLane="0" via=":gneJ3_0_0" tl="gneJ3" linkIndex="0" dir="r" state="o"/>
    <connection from="gneE10" to="gneE4" fromLane="0" toLane="0" via=":gneJ3_1_0" tl="gneJ3" linkIndex="1" dir="s" state="o"/>
    <connection from="gneE10" to="gneE4" fromLane="1" toLane="1" via=":gneJ3_1_1" tl="gneJ3" linkIndex="2" dir="s" state="o"/>
    <connection from="gneE10" to="gneE11" fromLane="1" toLane="0" via=":gneJ3_3_0" tl="gneJ3" linkIndex="3" dir="l" state="o"/>
    <connection from="gneE12" to="gneE9" fromLane="0" toLane="0" via=":gneJ3_4_0" tl="gneJ3" linkIndex="4" dir="r" state="o"/>
    <connection from="gneE12" to="gneE16" fromLane="1" toLane="0" via=":gneJ3_5_0" tl="gneJ3" linkIndex="5" dir="s" state="o"/>
    <connection from="gneE12" to="gneE4" fromLane="1" toLane="1" via=":gneJ3_6_0" tl="gneJ3" linkIndex="6" dir="l" state="o"/>
    <connection from="gneE15" to="gneE4" fromLane="0" toLane="0" via=":gneJ3_11_0" tl="gneJ3" linkIndex="11" dir="r" state="o"/>
    <connection from="gneE15" to="gneE11" fromLane="0" toLane="0" via=":gneJ3_12_0" tl="gneJ3" linkIndex="12" dir="s" state="o"/>
    <connection from="gneE15" to="gneE9" fromLane="0" toLane="1" via=":gneJ3_13_0" tl="gneJ3" linkIndex="13" dir="l" state="o"/>
    <connection from="gneE2" to="gneE8" fromLane="0" toLane="0" via=":gneJ1_8_0" tl="gneJ1" linkIndex="8" dir="s" state="o"/>
    <connection from="gneE2" to="gneE5" fromLane="1" toLane="1" via=":gneJ1_9_0" tl="gneJ1" linkIndex="9" dir="l" state="o"/>
    <connection from="gneE4" to="gneE3" fromLane="0" toLane="0" via=":gneJ1_0_0" tl="gneJ1" linkIndex="0" dir="r" state="o"/>
    <connection from="gneE4" to="gneE8" fromLane="1" toLane="0" via=":gneJ1_1_0" tl="gneJ1" linkIndex="1" dir="l" state="o"/>
    <connection from="gneE5" to="gneE11" fromLane="0" toLane="0" via=":gneJ3_7_0" tl="gneJ3" linkIndex="7" dir="r" state="o"/>
    <connection from="gneE5" to="gneE9" fromLane="0" toLane="0" via=":gneJ3_8_0" tl="gneJ3" linkIndex="8" dir="s" state="o"/>
    <connection from="gneE5" to="gneE9" fromLane="1" toLane="1" via=":gneJ3_8_1" tl="gneJ3" linkIndex="9" dir="s" state="o"/>
    <connection from="gneE5" to="gneE16" fromLane="1" toLane="0" via=":gneJ3_10_0" tl="gneJ3" linkIndex="10" dir="l" state="o"/>
    <connection from="gneE7" to="gneE5" fromLane="0" toLane="0" via=":gneJ1_2_0" tl="gneJ1" linkIndex="2" dir="r" state="o"/>
    <connection from="gneE7" to="gneE3" fromLane="1" toLane="0" via=":gneJ1_3_0" tl="gneJ1" linkIndex="3" dir="s" state="o"/>

    <connection from=":gneJ1_0" to="gneE3" fromLane="0" toLane="0" dir="s" state="M"/>
    <connection from=":gneJ1_1" to="gneE8" fromLane="0" toLane="0" via=":gneJ1_10_0" dir="s" state="m"/>
    <connection from=":gneJ1_10" to="gneE8" fromLane="0" toLane="0" dir="s" state="M"/>
    <connection from=":gneJ1_2" to="gneE5" fromLane="0" toLane="0" dir="s" state="M"/>
    <connection from=":gneJ1_3" to="gneE3" fromLane="0" toLane="0" dir="s" state="M"/>
    <connection from=":gneJ1_4" to="gneE8" fromLane="0" toLane="0" dir="s" state="M"/>
    <connection from=":gneJ1_5" to="gneE5" fromLane="0" toLane="0" dir="s" state="M"/>
    <connection from=":gneJ1_5" to="gneE5" fromLane="1" toLane="1" dir="s" state="M"/>
    <connection from=":gneJ1_7" to="gneE3" fromLane="0" toLane="0" via=":gneJ1_11_0" dir="s" state="m"/>
    <connection from=":gneJ1_11" to="gneE3" fromLane="0" toLane="0" dir="s" state="M"/>
    <connection from=":gneJ1_8" to="gneE8" fromLane="0" toLane="0" dir="s" state="M"/>
    <connection from=":gneJ1_9" to="gneE5" fromLane="0" toLane="1" via=":gneJ1_12_0" dir="s" state="m"/>
    <connection from=":gneJ1_12" to="gneE5" fromLane="0" toLane="1" dir="s" state="M"/>
    <connection from=":gneJ3_0" to="gneE16" fromLane="0" toLane="0" dir="s" state="M"/>
    <connection from=":gneJ3_1" to="gneE4" fromLane="0" toLane="0" dir="s" state="M"/>
    <connection from=":gneJ3_1" to="gneE4" fromLane="1" toLane="1" dir="s" state="M"/>
    <connection from=":gneJ3_3" to="gneE11" fromLane="0" toLane="0" via=":gneJ3_14_0" dir="s" state="m"/>
    <connection from=":gneJ3_14" to="gneE11" fromLane="0" toLane="0" dir="s" state="M"/>
    <connection from=":gneJ3_4" to="gneE9" fromLane="0" toLane="0" dir="s" state="M"/>
    <connection from=":gneJ3_5" to="gneE16" fromLane="0" toLane="0" dir="s" state="M"/>
    <connection from=":gneJ3_6" to="gneE4" fromLane="0" toLane="1" via=":gneJ3_15_0" dir="s" state="m"/>
    <connection from=":gneJ3_15" to="gneE4" fromLane="0" toLane="1" dir="s" state="M"/>
    <connection from=":gneJ3_7" to="gneE11" fromLane="0" toLane="0" dir="s" state="M"/>
    <connection from=":gneJ3_8" to="gneE9" fromLane="0" toLane="0" dir="s" state="M"/>
    <connection from=":gneJ3_8" to="gneE9" fromLane="1" toLane="1" dir="s" state="M"/>
    <connection from=":gneJ3_10" to="gneE16" fromLane="0" toLane="0" via=":gneJ3_16_0" dir="s" state="m"/>
    <connection from=":gneJ3_16" to="gneE16" fromLane="0" toLane="0" dir="s" state="M"/>
    <connection from=":gneJ3_11" to="gneE4" fromLane="0" toLane="0" dir="s" state="M"/>
    <connection from=":gneJ3_12" to="gneE11" fromLane="0" toLane="0" dir="s" state="M"/>
    <connection from=":gneJ3_13" to="gneE9" fromLane="0" toLane="1" via=":gneJ3_17_0" dir="s" state="m"/>
    <connection from=":gneJ3_17" to="gneE9" fromLane="0" toLane="1" dir="s" state="M"/>

</net>
